18
 xtb: 6.5.1 (fef0646)
N           -3.30863951919539       -1.89687416504117        0.13116902857420
C           -2.44583291367623       -2.47852006085610       -0.93895314568969
C           -1.38129013057101       -1.50119691809960       -1.43035873480781
C           -0.37904034048551       -1.10083053798351       -0.34501424740520
C            0.71854031451491       -0.18053750788865       -0.85632819642451
I            2.02515355745392        0.53669631447207        0.65592605338192
Cl          -4.37614989717827        1.14527955762026       -0.93974715943403
H           -2.77657297379215       -1.74367754726967        0.99943871915452
H           -4.07958959839038       -2.56886097351889        0.38238563786033
H           -3.72311853361949       -1.03306273373162       -0.16591530742132
H           -3.05768727955736       -2.81476134077832       -1.77239704557096
H           -1.93849174594718       -3.39590594635665       -0.56482146365796
H           -1.89001174071271       -0.59097585484043       -1.79334744727098
H           -0.84464721380333       -1.89823130338060       -2.27677645851290
H            0.09815256784338       -1.98468627557281        0.07834173614836
H           -0.90971614478080       -0.63311368055390        0.51544163740799
H            0.22414674908820        0.78057581896193       -1.23638266186044
H            1.26214391537412       -0.57340920619036       -1.64106903264109
