16
 xtb: 6.5.1 (fef0646)
N            0.03881170592622       -2.01333201325704        0.35495916269458
C            1.16677439896655       -1.64148847626854       -0.54771094880180
C            1.95553947830702       -0.43036883655281       -0.04376940544369
C            1.19646545202454        0.85193223159406       -0.08094701934968
C            1.80022598388066        2.03032079775565       -0.10498686628834
Cl          -2.43089646115168        0.69454433349127        0.13367936118970
H           -0.67666807627333       -1.19033177732708        0.39493285676984
H            0.33694718897610       -2.11290864845863        1.33455491990807
H           -0.49801071263965       -2.81171926106758        0.07438581417615
H            0.76353871495679       -1.45868524211466       -1.55273372201243
H            1.79543064969710       -2.51820959999331       -0.62476806376331
H            2.86475177819376       -0.33216085938107       -0.67269991853631
H            2.29647303705379       -0.59871681077139        0.95619118121248
H            0.12555562422019        0.81438130389999       -0.17876641473124
H            2.86847932682045        2.10657154458314        0.01212759097271
H            1.24775056055681        2.95260895135572       -0.08100890224986
