 xtb: 6.5.1 (fef0646)
          01242317083D

 16 14  0     0  0            999 V2000
   -0.0059   -1.9453    0.3770 N   0  0  0  0  0  0  0  0  0  0  0  0
    1.1332   -1.6394   -0.5372 C   0  0  0  0  0  0  0  0  0  0  0  0
    1.9508   -0.4294   -0.0824 C   0  0  0  0  0  0  0  0  0  0  0  0
    1.2052    0.8599   -0.1410 C   0  0  0  0  0  0  0  0  0  0  0  0
    1.7996    2.0327   -0.0427 C   0  0  0  0  0  0  0  0  0  0  0  0
   -2.3750    0.6342    0.1324 Cl  0  0  0  0  0  0  0  0  0  0  0  0
   -0.6916   -1.1708    0.3871 H   0  0  0  0  0  0  0  0  0  0  0  0
    0.3230   -2.0790    1.3431 H   0  0  0  0  0  0  0  0  0  0  0  0
   -0.5096   -2.7980    0.0935 H   0  0  0  0  0  0  0  0  0  0  0  0
    0.7549   -1.4664   -1.5516 H   0  0  0  0  0  0  0  0  0  0  0  0
    1.7803   -2.5223   -0.6126 H   0  0  0  0  0  0  0  0  0  0  0  0
    2.8588   -0.3403   -0.6921 H   0  0  0  0  0  0  0  0  0  0  0  0
    2.3032   -0.5915    0.9431 H   0  0  0  0  0  0  0  0  0  0  0  0
    0.1316    0.8181   -0.2335 H   0  0  0  0  0  0  0  0  0  0  0  0
    2.8640    2.1053    0.0715 H   0  0  0  0  0  0  0  0  0  0  0  0
    1.2491    2.9540   -0.0716 H   0  0  0  0  0  0  0  0  0  0  0  0
  1  2  1  0  0  0  0
  2  3  1  0  0  0  0
  3  4  1  0  0  0  0
  4  5  2  0  0  0  0
  1  7  1  0  0  0  0
  1  8  1  0  0  0  0
  1  9  1  0  0  0  0
  2 10  1  0  0  0  0
  2 11  1  0  0  0  0
  3 12  1  0  0  0  0
  3 13  1  0  0  0  0
  4 14  1  0  0  0  0
  5 15  1  0  0  0  0
  5 16  1  0  0  0  0
M  END
