29
 xtb: 6.5.1 (fef0646)
N            3.21670505737533       -1.75342184720285       -0.01689457788535
C            2.85549231835640       -1.42258442551647       -1.42311269152077
C            1.77706998024091       -0.34845000815135       -1.45712168506435
O            0.57922098321883       -0.79238682442983       -0.83290211410337
C           -0.41443973338009        0.17321424240139       -0.70601389511654
C           -0.30036200459904        1.48273882062539       -1.14159659594201
C           -1.32936646441220        2.40394063943782       -0.95871858210398
C           -2.49306901833928        2.04180500904507       -0.34361322822471
C           -2.67868600297068        0.71923293138569        0.11095891243326
C           -3.87290744397721        0.30413460734661        0.74201032380793
C           -4.02606493987592       -0.98430185317679        1.16115687493216
C           -3.00025307677074       -1.91645527593354        0.97083938636725
C           -1.83394036912493       -1.54383474616509        0.36763017156324
C           -1.63980179840201       -0.22307932522513       -0.07381865338597
Cl           4.12288924795747        0.92504755509939        1.43694617168504
H            3.54130465907408       -1.01382811717549        0.45456388193058
H            3.88375785995873       -2.58405241847535       -0.01996116087043
H            2.33477834774378       -2.15221904417201        0.43250879471189
H            2.45766314494526       -2.32973511224958       -1.99524016896005
H            3.73239542341386       -1.12498793133050       -1.98986634775583
H            1.53305527531452       -0.04587263528270       -2.48445076414225
H            2.13814191508865        0.51029810184864       -0.91189277899195
H            0.60960591447270        1.80084259177666       -1.61706314069735
H           -1.18811251786152        3.41722236475755       -1.28877545249518
H           -3.27576589668922        2.76160444117707       -0.19791807578216
H           -4.66394860945616        1.02349614193244        0.88214466717543
H           -4.94975321139924       -1.28866882579328        1.63140855555692
H           -3.14482273257405       -2.93495444215563        1.29558125460263
H           -1.05071747572731       -2.26288737929966        0.21110783536145
