29
 xtb: 6.5.1 (fef0646)
N            3.22610545199674       -1.72631968441904       -0.00829199205431
C            2.84427475659040       -1.44358545801974       -1.42277699008042
C            1.76570756709868       -0.36935094251228       -1.47346290613852
O            0.56944810923942       -0.80320731993634       -0.83633526136402
C           -0.41553252984804        0.16787184338043       -0.70337000227450
C           -0.29417586319643        1.47974270101915       -1.12977839619255
C           -1.31760489490821        2.40553889685537       -0.93951741226945
C           -2.48464838291533        2.04485216639942       -0.32993374369007
C           -2.67824340291789        0.71985014809545        0.11416188436309
C           -3.87598752930719        0.30581667912572        0.73913597063444
C           -4.03587980055933       -0.98480949258425        1.14900652579950
C           -3.01335848571891       -1.92007047811534        0.95606151982416
C           -1.84372246899144       -1.54856727247007        0.35863115593552
C           -1.64360438881522       -0.22605456492400       -0.07468585793492
Cl           4.14592682291838        0.94749355463557        1.43678591550001
H            3.53815923718322       -0.99567789772032        0.45310326041810
H            3.89268423618311       -2.57056101850607       -0.01367808709774
H            2.34134632554413       -2.14989375098699        0.43830421353434
H            2.45264925522716       -2.34020595491230       -1.98693401676623
H            3.72677925134097       -1.13480974755206       -1.99633516074908
H            1.52808239839815       -0.05615046194828       -2.49014729101414
H            2.13608955115701        0.50661063326908       -0.92119873042004
H            0.61199310894010        1.79952890562352       -1.61289126464333
H           -1.18276725624411        3.41841858710933       -1.28032870589178
H           -3.27214672865050        2.76350881604073       -0.19250188746058
H           -4.66401947957042        1.02472680847785        0.88216368920603
H           -4.95356243781848       -1.28864014076204        1.62616106840980
H           -3.15035402117115       -2.93651929455781        1.28895835132543
H           -1.05427367343447       -2.26482487117345        0.20773542045856
