40
1.021
N            0.19827  -1.45869   0.77903
C           -0.11390  -2.85306   0.36431
C           -1.07484  -2.91405  -0.81900
C           -0.49830  -2.32365  -2.12433
C           -1.09816  -0.97418  -2.52095
N           -0.81667   0.10434  -1.56709
C           -1.90419   0.89685  -0.91569
C           -1.10210   1.98602  -0.09576
C           -1.19517   1.82077   1.39533
C           -2.00395   0.94521   1.98894
C           -2.87640   0.07808   1.23423
C           -2.85594   0.05129  -0.09609
C            0.43312   0.74248  -1.44807
C            0.32527   1.84073  -0.58982
C            1.44028   2.59500  -0.28190
C            2.66330   2.24770  -0.83289
C            2.77141   1.15959  -1.68638
C            1.66383   0.39967  -2.00317
Cl           2.32385  -1.10840   3.43979
H           -0.65982  -0.94273   1.02341
H            0.62406  -0.92675   0.00194
H            0.84247  -1.40580   1.58784
H           -0.53178  -3.39515   1.22228
H            0.81676  -3.37532   0.11209
H           -2.00105  -2.38924  -0.56027
H           -1.38233  -3.95657  -0.98228
H           -0.64012  -3.03428  -2.95037
H            0.58874  -2.22906  -2.02590
H           -2.18287  -1.06350  -2.62652
H           -0.72639  -0.65248  -3.50053
H           -2.46550   1.38713  -1.72340
H           -1.47211   2.98809  -0.36227
H           -0.54198   2.43235   2.00070
H           -2.01594   0.87302   3.06620
H           -3.56778  -0.55217   1.77293
H           -3.53399  -0.59673  -0.62618
H            1.34957   3.43650   0.38301
H            3.54039   2.83129  -0.59600
H            3.73077   0.90641  -2.10953
H            1.73914  -0.43318  -2.67664
