16
 xtb: 6.5.1 (fef0646)
N            3.60314795285244       -1.18322889404591       -0.05438583961573
C            3.21337751242723        0.25459075553321       -0.02177241101729
C            1.74142234870650        0.46001290413696       -0.00276143487689
C            1.12708677051461        1.66947344931839       -0.02014052237980
C           -0.29693746625154        1.58976426227930        0.01132916690229
C           -0.75834846046528        0.32093312468238        0.05392977679056
S            0.56220201998608       -0.82663305299964        0.08285406515935
Cl          -4.12464327790737       -0.28191574862871       -0.05053008045373
H            4.59741756794976       -1.35129091047502       -0.02611122329148
H            3.18937666135911       -1.66626954371674       -0.86276130114426
H            3.18896099911079       -1.69101223657223        0.79520090855509
H            3.64950071087017        0.74411494922135       -0.86833318635543
H            3.64964415494347        0.71616220086315        0.88054584024423
H            1.70123692797768        2.60500935108939       -0.01981857010363
H           -0.90841521819327        2.49833427980316       -0.00498230291872
H           -1.79757729652778        0.08617179503363        0.02427978886613
