26
0.601
N           -3.31502  -1.58968  -0.58272
C           -1.85855  -1.33219  -0.77228
C           -1.19062  -0.82945   0.50232
C            0.26936  -0.53457   0.31947
C            0.69310   0.72239  -0.08733
C            2.02921   0.99180  -0.28454
C            2.99642   0.00372  -0.08641
O            4.37175   0.18959  -0.25958
C            4.74824   1.48761  -0.66585
C            2.55864  -1.26180   0.31244
C            1.22258  -1.52519   0.50818
Cl          -4.66049   1.45303   0.54717
H           -3.76964  -1.90351  -1.45063
H           -3.79148  -0.72795  -0.26706
H           -3.47094  -2.30798   0.13665
H           -1.71317  -0.60008  -1.57499
H           -1.35887  -2.24492  -1.11714
H           -1.31720  -1.56548   1.30312
H           -1.70230   0.07133   0.85696
H           -0.04154   1.49291  -0.25047
H            2.32793   1.97627  -0.59646
H            5.83331   1.52047  -0.76961
H            4.44529   2.21848   0.08567
H            4.29628   1.72456  -1.63037
H            3.29590  -2.03087   0.46314
H            0.90419  -2.50890   0.80991
