26
0.271
N           -2.33298  -0.94488  -1.47123
C           -2.09826  -2.06709  -0.51816
C           -1.41081  -1.59963   0.76275
C           -0.10920  -0.90084   0.50489
C           -0.06239   0.47917   0.37553
C            1.12408   1.12130   0.10611
C            2.31353   0.40645  -0.05102
O            3.47653   1.13423  -0.32269
C            4.64508   0.35496  -0.46028
C            2.25590  -0.98440   0.07179
C            1.06548  -1.62124   0.34133
Cl          -3.38399   1.81153   0.46449
H           -2.91143  -1.22598  -2.27496
H           -1.43864  -0.58130  -1.83524
H           -2.80164  -0.16119  -0.99230
H           -1.48921  -2.83586  -1.00737
H           -3.05243  -2.55261  -0.27891
H           -1.23935  -2.44485   1.43919
H           -2.07515  -0.92088   1.30800
H           -0.97322   1.04508   0.47871
H            1.15700   2.19216   0.00786
H            5.48639   1.01901  -0.66142
H            4.53745  -0.33814  -1.29621
H            4.84245  -0.19145   0.46339
H            3.15070  -1.56822  -0.04833
H            1.03514  -2.69464   0.42592
