46

N          1.86990        1.18786        0.05149
C          2.24590        2.60069        0.14066
C          3.44609        2.83766        1.06205
C          4.69449        2.14046        0.59805
C          4.99175        0.79444        0.66364
C          6.25536        0.49425        0.08637
C          6.95129        1.61943       -0.31666
C          8.29914        1.63053       -0.84573
C          9.23648        0.62896       -0.68750
C         10.49230        0.89057       -1.33586
C         11.63691       -0.07013       -1.25547
C         10.46481        2.11450       -1.99507
C         11.48973        2.75806       -2.79269
C         11.72212        4.11659       -2.91393
C         12.75763        4.41954       -3.84366
C         13.35163        3.28976       -4.37802
C         14.46976        3.23712       -5.29527
C         15.58478        4.07244       -5.34134
C         15.91319        5.19558       -4.40852
C         16.44918        3.73275       -6.43993
C         16.00070        2.65291       -7.15988
S         14.53585        2.04726       -6.54296
S         12.57067        1.87838       -3.79204
S          8.94635        2.90205       -1.77834
S          5.99809        3.02774       -0.07447
Cl         0.84048       -0.96651        1.54452
H          1.00609        0.98958       -0.46637
H          1.62193        0.70865        0.96267
H          2.57914        0.55172       -0.32683
H          1.36774        3.13431        0.51394
H          2.45424        2.92933       -0.88162
H          3.21048        2.51340        2.08259
H          3.61850        3.92075        1.11803
H          4.33610        0.04271        1.08976
H          6.64755       -0.51255        0.00291
H          9.04592       -0.27283       -0.11703
H         11.40805       -0.89928       -0.57623
H         12.53583        0.42639       -0.87766
H         11.84660       -0.50969       -2.23502
H         11.16663        4.87159       -2.37298
H         13.05863        5.42717       -4.09624
H         15.32267        5.17433       -3.49044
H         15.74677        6.15677       -4.90689
H         16.96463        5.14169       -4.10812
H         17.36603        4.25908       -6.67890
H         16.46567        2.19087       -8.01980
