16
0.481
N           -1.29486   1.81217  -0.60968
C           -0.11664   1.80183   0.29823
C            0.71295   0.58211   0.13361
C            0.25318  -0.69316   0.18317
C            1.27003  -1.67508  -0.00843
C            2.49577  -1.13925  -0.20192
S            2.42845   0.58593  -0.15376
Cl          -3.21899  -0.99636   0.27391
H           -1.91528   1.01000  -0.40938
H           -0.99742   1.73112  -1.59390
H           -1.85700   2.67839  -0.51654
H           -0.44584   1.87846   1.34128
H            0.50420   2.68608   0.11216
H           -0.78773  -0.93569   0.33905
H            1.07562  -2.73830  -0.00033
H            3.40079  -1.69507  -0.36599
