 xtb: 6.5.1 (fef0646)
          01232319383D

 22 21  0     0  0            999 V2000
    1.1508    0.3737    0.3486 N   0  0  0  0  0  0  0  0  0  0  0  0
    2.6054    0.5135    0.3338 C   0  0  0  0  0  0  0  0  0  0  0  0
    3.0910    0.7571   -1.0988 C   0  0  0  0  0  0  0  0  0  0  0  0
    4.5922    0.7609   -1.1473 C   0  0  0  0  0  0  0  0  0  0  0  0
    5.2888   -0.4389   -1.2365 C   0  0  0  0  0  0  0  0  0  0  0  0
    6.6711   -0.4590   -1.2452 C   0  0  0  0  0  0  0  0  0  0  0  0
    7.3525    0.7417   -1.1615 C   0  0  0  0  0  0  0  0  0  0  0  0
    8.7028    0.7329   -1.1686 F   0  0  0  0  0  0  0  0  0  0  0  0
    6.6895    1.9510   -1.0720 C   0  0  0  0  0  0  0  0  0  0  0  0
    5.3059    1.9495   -1.0636 C   0  0  0  0  0  0  0  0  0  0  0  0
    0.3995   -1.8470   -1.4228 Cl  0  0  0  0  0  0  0  0  0  0  0  0
    0.8086    0.1745    1.2824 H   0  0  0  0  0  0  0  0  0  0  0  0
    0.7431   -0.8126   -0.5919 H   0  0  0  0  0  0  0  0  0  0  0  0
    0.7032    1.2186    0.0082 H   0  0  0  0  0  0  0  0  0  0  0  0
    3.0313   -0.4204    0.7069 H   0  0  0  0  0  0  0  0  0  0  0  0
    2.9541    1.3300    0.9819 H   0  0  0  0  0  0  0  0  0  0  0  0
    2.7011    1.7127   -1.4540 H   0  0  0  0  0  0  0  0  0  0  0  0
    2.6954   -0.0355   -1.7335 H   0  0  0  0  0  0  0  0  0  0  0  0
    4.7409   -1.3664   -1.3065 H   0  0  0  0  0  0  0  0  0  0  0  0
    7.2210   -1.3838   -1.3175 H   0  0  0  0  0  0  0  0  0  0  0  0
    7.2523    2.8690   -1.0116 H   0  0  0  0  0  0  0  0  0  0  0  0
    4.7765    2.8887   -0.9970 H   0  0  0  0  0  0  0  0  0  0  0  0
  1  2  1  0  0  0  0
  2  3  1  0  0  0  0
  3  4  1  0  0  0  0
  4  5  4  0  0  0  0
  5  6  4  0  0  0  0
  6  7  4  0  0  0  0
  7  8  1  0  0  0  0
  7  9  4  0  0  0  0
  4 10  4  0  0  0  0
  9 10  4  0  0  0  0
  1 12  1  0  0  0  0
 11 13  1  0  0  0  0
  1 14  1  0  0  0  0
  2 15  1  0  0  0  0
  2 16  1  0  0  0  0
  3 17  1  0  0  0  0
  3 18  1  0  0  0  0
  5 19  1  0  0  0  0
  6 20  1  0  0  0  0
  9 21  1  0  0  0  0
 10 22  1  0  0  0  0
M  END
