  39

 N         -7.7355100113       -0.8376462101       -1.5039643706
 C         -7.9661682942        0.5481158321       -1.0062948874
 C         -7.3441705264        0.7731512150        0.3713548146
 C         -5.8567501498        0.7650596891        0.3376887163
 C         -5.0557266002        1.8687473290        0.2801164859
 C         -3.6781330106        1.5807734255        0.2532988477
 C         -3.3863284110        0.2363359101        0.2879222695
 C         -2.0868637904       -0.3360190347        0.2760474752
 C         -1.7930236590       -1.6902214233        0.3319847936
 C         -0.4337228099       -1.9810662814        0.2966350984
 C          0.3845713096       -0.8607489961        0.2103590416
 C          1.7976088681       -0.8459770738        0.1480614473
 C          2.6428902041       -1.9492538019        0.1569431507
 C          3.9939085760       -1.6300710455        0.0759475369
 C          4.2535876913       -0.2696313192        0.0021324448
 C          5.5380676686        0.3295716905       -0.0932226102
 C          5.7993713605        1.6803058465       -0.1578526736
 C          7.1696605054        1.9902274658       -0.2493493209
 C          7.9760136116        0.8957278251       -0.2565891825
 S          7.0482454064       -0.5451631424       -0.1485917865
 S          2.7541624745        0.6052418581        0.0419036395
 S         -0.6060463515        0.5693233301        0.1853109555
 S         -4.8777364570       -0.6683709814        0.3469008926
 H         -8.0338509179       -0.9579986484       -2.4842957085
 H         -8.2454121934       -1.5270790717       -0.9313962057
 H         -6.7311238028       -1.0696918108       -1.4383504988
 H         -9.0443054185        0.7480267060       -0.9836909373
 H         -7.5414709938        1.2666126056       -1.7169106925
 H         -7.6877771015       -0.0056230017        1.0597617347
 H         -7.6869059744        1.7224540458        0.7978691980
 H         -5.4479243153        2.8737745062        0.2638729184
 H         -2.9134993544        2.3404116536        0.2159001139
 H         -2.5608828904       -2.4450875964        0.3973637528
 H         -0.0473345993       -2.9868611372        0.3328028435
 H          2.2815320767       -2.9632191521        0.2175440832
 H          4.7793973573       -2.3692421371        0.0679562456
 H          5.0200157559        2.4259395224       -0.1390042997
 H          7.5430984245        3.0022403035       -0.3083540375
 H          9.0478332035        0.9108920606       -0.3202922012
          39
        -62.15249492
 N         -7.7565467499       -1.5676780730       -1.1890244652
 C         -8.2012609228       -0.2169585105       -0.7440403994
 C         -7.5259003252        0.2076850000        0.5589487521
 C         -6.0672396049        0.4532925674        0.3991553218
 C         -5.4827661490        1.6696200727        0.1948127208
 C         -4.0799425646        1.6243256742        0.0867245636
 C         -3.5500001967        0.3597691495        0.2040724632
 C         -2.1704754423        0.0256877237        0.1570927099
 C         -1.6370452271       -1.2490775942        0.2770179201
 C         -0.2486139995       -1.2931550904        0.2166327065
 C          0.3516135938       -0.0523605596        0.0468061686
 C          1.7417630568        0.1947012102       -0.0285574764
 C          2.3406234397        1.4350769059       -0.2047118815
 C          3.7303364677        1.3964001665       -0.2285488157
 C          4.2658713340        0.1263688044       -0.0720491475
 C          5.6495570891       -0.1950746453       -0.0473971296
 C          6.1889572113       -1.4524627735        0.1100574753
 C          7.5967141709       -1.4722240617        0.1001543209
 C          8.1577598184       -0.2448261904       -0.0640970028
 S          6.9461454366        0.9629255010       -0.2112337260
 S          2.9773070380       -1.0263788860        0.0951890997
 S         -0.8805580322        1.1721493328       -0.0525276776
 S         -4.8496341561       -0.7834475852        0.4307871161
 H         -6.7278983997       -1.6078712983       -1.2132680364
 H         -8.1130296178       -1.8099659493       -2.1265902123
 H         -8.0744338028       -2.2992747022       -0.5308422078
 H         -9.2925934292       -0.2151604345       -0.6342210080
 H         -7.9770688196        0.5179006210       -1.5258691657
 H         -7.6732018429       -0.5683497731        1.3169823749
 H         -7.9984747936        1.1105355669        0.9612571536
 H         -6.0491641732        2.5858222143        0.1329338936
 H         -3.4670496434        2.4989285762       -0.0631800816
 H         -2.2539006502       -2.1232500269        0.4144559998
 H          0.3214870145       -2.2044828432        0.3009614023
 H          1.7694300946        2.3438805526       -0.3078562255
 H          4.3469450380        2.2726127130       -0.3523778314
 H          5.5816315380       -2.3356808988        0.2313846767
 H          8.1747099118       -2.3778345767        0.2135340468
 H          9.2111790141       -0.0396252890       -0.0991382368
          39
        -62.15258063
 N         -7.6349108694       -1.5976663820       -1.3511909928
 C         -8.1347498026       -0.2586629415       -0.9297535872
 C         -7.5435393514        0.1777079093        0.4098301478
 C         -6.0813679269        0.4400219114        0.3325767989
 C         -5.5002032479        1.6580920857        0.1294607549
 C         -4.0934218927        1.6259752443        0.0901810230
 C         -3.5575019877        0.3699585756        0.2600593985
 C         -2.1750807549        0.0450503860        0.2645546923
 C         -1.6384027868       -1.2211218401        0.4452740168
 C         -0.2495663333       -1.2630013963        0.3962944045
 C          0.3478161404       -0.0289234548        0.1754402753
 C          1.7368602186        0.2139724593        0.0722929798
 C          2.3355381537        1.4489891321       -0.1385958296
 C          3.7235536115        1.4026634425       -0.2071694658
 C          4.2576090577        0.1316974444       -0.0530660340
 C          5.6386420518       -0.2000451581       -0.0866786790
 C          6.1751604898       -1.4597502734        0.0618677297
 C          7.5803746586       -1.4920679628       -0.0189258487
 C          8.1423163729       -0.2718991217       -0.2278754963
 S          6.9347778493        0.9446993723       -0.3284858836
 S          2.9706575965       -1.0095323440        0.1882234183
 S         -0.8864612031        1.1899437485        0.0389043181
 S         -4.8541941019       -0.7798442053        0.4685924435
 H         -7.9707631829       -2.3354919695       -0.7143671966
 H         -6.6056232329       -1.6149581645       -1.3189069636
 H         -7.9343259633       -1.8467642690       -2.3101090627
 H         -9.2302905703       -0.2811658139       -0.8822225372
 H         -7.8827536018        0.4827064369       -1.6968406152
 H         -7.7251579612       -0.5983239253        1.1603486341
 H         -8.0496400659        1.0758776794        0.7805222110
 H         -6.0725538152        2.5651248695        0.0121513042
 H         -3.4829225322        2.5026343920       -0.0574099998
 H         -2.2538343475       -2.0918828932        0.6083705913
 H          0.3225034362       -2.1690112687        0.5167708325
 H          1.7652716082        2.3584555399       -0.2410254605
 H          4.3397632646        2.2731020688       -0.3681199974
 H          5.5674262638       -2.3362638438        0.2232040162
 H          8.1558437560       -2.4014318060        0.0757042580
 H          9.1941839460       -0.0766988060       -0.3200131341
