  39

 N          3.3572457470       -0.9575054925        0.0395767166
 C          2.6793605538        0.3604598042        0.1852225813
 C          3.6321928431        1.3330449036        0.8883475234
 C          4.8589991951        1.5626802138        0.0699469598
 C          5.1644165217        2.6060379336       -0.7457786852
 C          6.3800576204        2.4499120991       -1.4369536686
 C          7.0273037924        1.2705887809       -1.1739556150
 C          8.2548226071        0.7814391581       -1.6844270896
 C          8.9092016240       -0.3930268125       -1.3742858653
 C         10.1090338812       -0.5553497872       -2.0600992198
 C         10.4000671770        0.4928282712       -2.9141561459
 C         11.5343711752        0.6428005886       -3.7538286006
 C         12.5966304266       -0.2262052674       -3.9085333711
 C         13.5504871660        0.2247327528       -4.8180326972
 C         13.2426113442        1.4466284724       -5.3789896100
 C         13.9941381874        2.1857613711       -6.3344155187
 C         13.7037763830        3.4117524442       -6.8844590243
 C         14.6757425241        3.8458649357       -7.8000240788
 C         15.6954681872        2.9555982623       -7.9451903286
 S         15.4949613435        1.5639616915       -6.9657647747
 S         11.7354683384        2.0490159090       -4.7650927728
 S          9.1561738492        1.7023313356       -2.8602218110
 S          6.1234804792        0.3357067053       -0.0012986255
 H          2.8724725726       -1.5778395997       -0.6154138194
 H          3.4350087319       -1.4232814723        0.9504771785
 H          4.3430843569       -0.7615791384       -0.2919877451
 H          1.7563962890        0.2375800622        0.7518981355
 H          2.4403494791        0.7366916764       -0.8103729914
 H          3.8943899377        0.9431996050        1.8741695331
 H          3.1169436840        2.2827902578        1.0299596958
 H          4.5392342113        3.4746450266       -0.8476874705
 H          6.7842231078        3.1809536144       -2.1124661768
 H          8.5257744490       -1.1055559769       -0.6633497740
 H         10.7512808823       -1.4074495866       -1.9393708357
 H         12.6768126323       -1.1570152081       -3.3775560137
 H         14.4465435267       -0.3141854130       -5.0691382926
 H         12.8208132673        3.9708126360       -6.6299393907
 H         14.6229738733        4.7794718243       -8.3299608612
 H         16.5609580322        3.0336834187       -8.5727274502
