 xtb: 6.5.1 (fef0646)
          01242315213D

 24 24  0     0  0            999 V2000
    2.2187   -1.5454    0.1018 N   0  0  0  0  0  0  0  0  0  0  0  0
    2.6027   -0.1163    0.0101 C   0  0  0  0  0  0  0  0  0  0  0  0
    3.1225    0.2472   -1.3824 C   0  0  0  0  0  0  0  0  0  0  0  0
    4.4421   -0.4615   -1.7033 C   0  0  0  0  0  0  0  0  0  0  0  0
    4.9574   -0.0429   -3.0794 C   0  0  0  0  0  0  0  0  0  0  0  0
    5.1498    1.4688   -3.1478 C   0  0  0  0  0  0  0  0  0  0  0  0
    3.8367    2.1797   -2.8342 C   0  0  0  0  0  0  0  0  0  0  0  0
    3.3213    1.7643   -1.4590 C   0  0  0  0  0  0  0  0  0  0  0  0
    1.8251   -1.7534    1.0263 H   0  0  0  0  0  0  0  0  0  0  0  0
    3.0403   -2.1417   -0.0470 H   0  0  0  0  0  0  0  0  0  0  0  0
    1.5193   -1.7694   -0.6156 H   0  0  0  0  0  0  0  0  0  0  0  0
    3.3745    0.0939    0.7505 H   0  0  0  0  0  0  0  0  0  0  0  0
    1.7313    0.4981    0.2366 H   0  0  0  0  0  0  0  0  0  0  0  0
    2.3804   -0.0318   -2.1371 H   0  0  0  0  0  0  0  0  0  0  0  0
    4.3204   -1.5452   -1.7083 H   0  0  0  0  0  0  0  0  0  0  0  0
    5.1911   -0.1979   -0.9541 H   0  0  0  0  0  0  0  0  0  0  0  0
    4.2439   -0.3464   -3.8492 H   0  0  0  0  0  0  0  0  0  0  0  0
    5.9038   -0.5450   -3.2899 H   0  0  0  0  0  0  0  0  0  0  0  0
    5.5027    1.7567   -4.1402 H   0  0  0  0  0  0  0  0  0  0  0  0
    5.9112    1.7748   -2.4263 H   0  0  0  0  0  0  0  0  0  0  0  0
    3.0979    1.9264   -3.5983 H   0  0  0  0  0  0  0  0  0  0  0  0
    3.9832    3.2612   -2.8639 H   0  0  0  0  0  0  0  0  0  0  0  0
    2.3794    2.2771   -1.2578 H   0  0  0  0  0  0  0  0  0  0  0  0
    4.0429    2.0777   -0.7021 H   0  0  0  0  0  0  0  0  0  0  0  0
  1  2  1  0  0  0  0
  2  3  1  0  0  0  0
  3  4  1  0  0  0  0
  4  5  1  0  0  0  0
  5  6  1  0  0  0  0
  6  7  1  0  0  0  0
  3  8  1  0  0  0  0
  7  8  1  0  0  0  0
  1  9  1  0  0  0  0
  1 10  1  0  0  0  0
  1 11  1  0  0  0  0
  2 12  1  0  0  0  0
  2 13  1  0  0  0  0
  3 14  1  0  0  0  0
  4 15  1  0  0  0  0
  4 16  1  0  0  0  0
  5 17  1  0  0  0  0
  5 18  1  0  0  0  0
  6 19  1  0  0  0  0
  6 20  1  0  0  0  0
  7 21  1  0  0  0  0
  7 22  1  0  0  0  0
  8 23  1  0  0  0  0
  8 24  1  0  0  0  0
M  CHG  1   1   1
M  END
