21
0.0
N            2.31398   0.25500   1.17263
C            1.66217  -0.41945   0.00027
C            2.29991   0.00558  -1.31766
C            0.16942  -0.19347   0.00128
C           -0.36178   1.09655  -0.07074
C           -1.73756   1.30095  -0.07220
C           -2.60269   0.21610  -0.00324
C           -2.08937  -1.07303   0.06716
C           -0.71373  -1.27626   0.06928
H            3.31217   0.02481   1.22554
H            1.86791  -0.03377   2.04974
H            2.23009   1.27409   1.09612
H            1.82757  -1.50249   0.12503
H            2.18194   1.07629  -1.47620
H            1.83877  -0.50500  -2.16345
H            3.36738  -0.21282  -1.33257
H            0.30213   1.94079  -0.12940
H           -2.13295   2.30189  -0.12770
H           -3.66893   0.37393  -0.00549
H           -2.75822  -1.91634   0.11964
H           -0.32201  -2.27729   0.12287
