 xtb: 6.5.1 (fef0646)
          02032322003D

 21 21  0     0  0            999 V2000
    2.3140    0.2550    1.1726 N   0  0  0  0  0  0  0  0  0  0  0  0
    1.6622   -0.4195    0.0003 C   0  0  0  0  0  0  0  0  0  0  0  0
    2.2999    0.0056   -1.3177 C   0  0  0  0  0  0  0  0  0  0  0  0
    0.1694   -0.1935    0.0013 C   0  0  0  0  0  0  0  0  0  0  0  0
   -0.3618    1.0966   -0.0707 C   0  0  0  0  0  0  0  0  0  0  0  0
   -1.7376    1.3010   -0.0722 C   0  0  0  0  0  0  0  0  0  0  0  0
   -2.6027    0.2161   -0.0032 C   0  0  0  0  0  0  0  0  0  0  0  0
   -2.0894   -1.0730    0.0672 C   0  0  0  0  0  0  0  0  0  0  0  0
   -0.7137   -1.2763    0.0693 C   0  0  0  0  0  0  0  0  0  0  0  0
    3.3122    0.0248    1.2255 H   0  0  0  0  0  0  0  0  0  0  0  0
    1.8679   -0.0338    2.0497 H   0  0  0  0  0  0  0  0  0  0  0  0
    2.2301    1.2741    1.0961 H   0  0  0  0  0  0  0  0  0  0  0  0
    1.8276   -1.5025    0.1250 H   0  0  0  0  0  0  0  0  0  0  0  0
    2.1819    1.0763   -1.4762 H   0  0  0  0  0  0  0  0  0  0  0  0
    1.8388   -0.5050   -2.1635 H   0  0  0  0  0  0  0  0  0  0  0  0
    3.3674   -0.2128   -1.3326 H   0  0  0  0  0  0  0  0  0  0  0  0
    0.3021    1.9408   -0.1294 H   0  0  0  0  0  0  0  0  0  0  0  0
   -2.1329    2.3019   -0.1277 H   0  0  0  0  0  0  0  0  0  0  0  0
   -3.6689    0.3739   -0.0055 H   0  0  0  0  0  0  0  0  0  0  0  0
   -2.7582   -1.9163    0.1197 H   0  0  0  0  0  0  0  0  0  0  0  0
   -0.3220   -2.2773    0.1229 H   0  0  0  0  0  0  0  0  0  0  0  0
  1  2  1  0  0  0  0
  2  3  1  0  0  0  0
  2  4  1  0  0  0  0
  4  5  4  0  0  0  0
  5  6  4  0  0  0  0
  6  7  4  0  0  0  0
  7  8  4  0  0  0  0
  4  9  4  0  0  0  0
  8  9  4  0  0  0  0
  1 10  1  0  0  0  0
  1 11  1  0  0  0  0
  1 12  1  0  0  0  0
  2 13  1  0  0  0  0
  3 14  1  0  0  0  0
  3 15  1  0  0  0  0
  3 16  1  0  0  0  0
  5 17  1  0  0  0  0
  6 18  1  0  0  0  0
  7 19  1  0  0  0  0
  8 20  1  0  0  0  0
  9 21  1  0  0  0  0
M  CHG  1   1   1
M  END
