17
2.951
N           -1.50146  -1.62702   0.76216
C           -2.72042  -0.83589   0.40921
C           -2.40940   0.57885  -0.08206
C           -1.46233   1.38420   0.84411
C           -0.09780   1.66164   0.23439
I            0.94536  -0.09747  -0.25922
H           -1.69296  -2.64217   0.77301
H           -1.14495  -1.38184   1.69972
H           -0.71949  -1.45119   0.07418
H           -3.38120  -0.79474   1.28442
H           -3.28967  -1.37639  -0.35895
H           -3.34909   1.12696  -0.23619
H           -1.96054   0.51987  -1.08095
H           -1.33821   0.85096   1.79586
H           -1.93279   2.33937   1.12457
H            0.54985   2.22363   0.91115
H           -0.18253   2.23456  -0.69078
