 xtb: 6.5.1 (fef0646)
          01242314553D

 22 21  0     0  0            999 V2000
   -1.8617    0.1599    0.8900 N   0  0  0  0  0  0  0  0  0  0  0  0
   -1.0688    0.0863   -0.3744 C   0  0  0  0  0  0  0  0  0  0  0  0
   -0.1384    1.2904   -0.4792 C   0  0  0  0  0  0  0  0  0  0  0  0
    0.9763    1.2534    0.5649 C   0  0  0  0  0  0  0  0  0  0  0  0
    1.7597   -0.0507    0.4462 C   0  0  0  0  0  0  0  0  0  0  0  0
    0.8370   -1.2527    0.6258 C   0  0  0  0  0  0  0  0  0  0  0  0
   -0.2767   -1.2163   -0.4194 C   0  0  0  0  0  0  0  0  0  0  0  0
    1.1787   -0.1380   -3.8086 Cl  0  0  0  0  0  0  0  0  0  0  0  0
   -2.3992    1.0328    0.9242 H   0  0  0  0  0  0  0  0  0  0  0  0
   -1.2113    0.1373    1.6841 H   0  0  0  0  0  0  0  0  0  0  0  0
   -2.4997   -0.6400    0.9590 H   0  0  0  0  0  0  0  0  0  0  0  0
   -1.7615    0.1044   -1.2182 H   0  0  0  0  0  0  0  0  0  0  0  0
   -0.7019    2.2214   -0.4045 H   0  0  0  0  0  0  0  0  0  0  0  0
    0.3130    1.2603   -1.4736 H   0  0  0  0  0  0  0  0  0  0  0  0
    0.5799    1.3576    1.5771 H   0  0  0  0  0  0  0  0  0  0  0  0
    1.6485    2.0951    0.3932 H   0  0  0  0  0  0  0  0  0  0  0  0
    2.5661   -0.0776    1.1817 H   0  0  0  0  0  0  0  0  0  0  0  0
    2.2120   -0.1002   -0.5479 H   0  0  0  0  0  0  0  0  0  0  0  0
    0.4336   -1.2627    1.6405 H   0  0  0  0  0  0  0  0  0  0  0  0
    1.4112   -2.1711    0.4975 H   0  0  0  0  0  0  0  0  0  0  0  0
   -0.9389   -2.0752   -0.3034 H   0  0  0  0  0  0  0  0  0  0  0  0
    0.1737   -1.2829   -1.4125 H   0  0  0  0  0  0  0  0  0  0  0  0
  1  2  1  0  0  0  0
  2  3  1  0  0  0  0
  3  4  1  0  0  0  0
  4  5  1  0  0  0  0
  5  6  1  0  0  0  0
  2  7  1  0  0  0  0
  6  7  1  0  0  0  0
  1  9  1  0  0  0  0
  1 10  1  0  0  0  0
  1 11  1  0  0  0  0
  2 12  1  0  0  0  0
  3 13  1  0  0  0  0
  3 14  1  0  0  0  0
  4 15  1  0  0  0  0
  4 16  1  0  0  0  0
  5 17  1  0  0  0  0
  5 18  1  0  0  0  0
  6 19  1  0  0  0  0
  6 20  1  0  0  0  0
  7 21  1  0  0  0  0
  7 22  1  0  0  0  0
M  END
