19
0.099
N           -1.20933  -1.83478   0.80768
C            0.01412  -1.94994  -0.03681
C            0.88272  -0.73256   0.03771
C            0.36294   0.52275  -0.24270
C            1.16078   1.64700  -0.18029
C            2.49341   1.53121   0.16358
C            3.02468   0.28883   0.44570
C            2.22545  -0.83541   0.38334
Cl          -3.12670   0.74471  -0.59442
H           -1.81670  -1.06990   0.47179
H           -0.95882  -1.62165   1.78975
H           -1.77005  -2.70185   0.80468
H           -0.26776  -2.12914  -1.08031
H            0.58990  -2.83102   0.27068
H           -0.67961   0.61534  -0.50217
H            0.74250   2.61746  -0.39895
H            3.11725   2.40962   0.21219
H            4.06620   0.19594   0.71489
H            2.64083  -1.80557   0.60292
