  13

 N         -0.1628123636       -0.0234665770        0.7004976756
 C          0.5139804271        0.8473678239       -0.2997637466
 C          2.0031362958        1.0200156037       -0.0026874696
 C          2.7320421437       -0.1917423483       -0.0485592996
 N          3.3119047258       -1.1912816361       -0.0878082055
 Cl        -3.5707803233       -0.3701295406       -0.1845465701
 H         -1.1654064923       -0.1517147653        0.4774873190
 H         -0.0973671334        0.3797137662        1.6432414063
 H          0.2764211761       -0.9517492062        0.7274274241
 H          0.0129396367        1.8225636918       -0.3315210247
 H          0.3897116079        0.4135899638       -1.2989667408
 H          2.1267799158        1.4684201000        0.9895621242
 H          2.4526197671        1.7298847557       -0.7078738526
          13
        -20.37896670
 N          0.1396431434        1.3151728589        0.8372121210
 C          0.9608909143        1.4349119855       -0.3987735593
 C          1.3261704801        0.0698050739       -0.9811785508
 C          2.1264223961       -0.7170206500       -0.1196379721
 N          2.7769779298       -1.3481340465        0.5980395323
 Cl        -2.7713480577       -0.4687101423       -0.0294666547
 H          0.6465696877        0.7821265028        1.5586880166
 H         -0.7348760357        0.8080740541        0.6372993994
 H         -0.1071842056        2.2327335778        1.2292796920
 H          1.8767108949        1.9936914785       -0.1738400521
 H          0.4174854939        2.0339900977       -1.1398336825
 H          1.8483020706        0.1908606395       -1.9382567699
 H          0.4085953241       -0.4833489871       -1.2120126071
          13
        -20.37908145
 N          0.1574192040        1.3561858036        0.8372870986
 C          0.9847474767        1.4518887675       -0.3967979747
 C          1.3048975410        0.0765436563       -0.9817615586
 C          2.0697835574       -0.7428189682       -0.1185014983
 N          2.6901120644       -1.4030661915        0.5998140391
 Cl        -2.7281775684       -0.4680030161       -0.0310496071
 H          0.6538358546        0.8228874039        1.5658519560
 H         -0.7223095963        0.8579916208        0.6381615113
 H         -0.0777213464        2.2807912298        1.2198000850
 H          1.9179480728        1.9799172947       -0.1689706860
 H          0.4629491666        2.0700076026       -1.1377612604
 H          1.8372225745        0.1820600751       -1.9350542918
 H          0.3694548724       -0.4421449176       -1.2208632442
