  13

 N          0.9471700000       -0.2422500000       -0.0711400000
 C          2.4142100000       -0.1386800000       -0.0230200000
 C          2.8934800000        0.3829300000        1.3245700000
 C          4.4113800000        0.4572600000        1.2952000000
 N          5.6706000000        0.5189300000        1.2708400000
 Cl        -0.3936700000        2.2085800000        0.5900200000
 H          0.5548300000       -0.4256100000       -0.9983400000
 H          0.5121800000        0.7027700000        0.1620000000
 H          0.5036000000       -0.8591800000        0.6177000000
 H          2.7096200000        0.5279300000       -0.8416000000
 H          2.8041800000       -1.1387300000       -0.2317900000
 H          2.5782800000       -0.2814500000        2.1363600000
 H          2.5053500000        1.3840100000        1.5316100000
