  13

 N          0.9187915213        0.1514622471       -0.2500599975
 C          2.3574900898        0.1768703248        0.0681220825
 C          2.9341398823        1.5919593774       -0.0359277160
 C          2.4401839057        2.4657631340        0.9951912815
 N          2.0439043066        3.1637185265        1.8118238561
 Cl         0.0514444344       -2.7365012058       -0.0799396359
 H          0.5685459114       -0.8450059556       -0.1947191577
 H          0.7373399155        0.4845685811       -1.2006308442
 H          0.3755894944        0.7056674420        0.4165306251
 H          2.8744294279       -0.4788140661       -0.6318058189
 H          2.4983774908       -0.2225562804        1.0726122360
 H          2.7009722076        2.0376218399       -1.0056517745
 H          4.0206314123        1.5485060349        0.0637548636
