21
 xtb: 6.5.1 (fef0646)
N           -1.40486442639950       -0.53384691628394       -1.17791329681259
C           -0.94468154822392       -1.89343961080938       -0.71255023546953
C            0.48715566399820       -1.84735083904760       -0.18246219987562
C            0.67112911642543       -0.83081328973782        0.95674944079707
C            2.03578570020415       -0.14319875531547        0.92653667680705
C            2.25280518702505        0.67683976084534       -0.32343474164428
O            3.53549061677532        1.05464033042070       -0.55467597099816
O            1.33388560909164        0.98184929252096       -1.05125159471007
Cl          -3.22860842713120        0.90951431566193        0.97953650224510
H           -1.80069123206603       -0.60363118389651       -2.16785430747657
H           -0.48756473143755        0.02940129443283       -1.33389515076542
H           -1.96834799787468       -0.07829004143278       -0.58719172804985
H           -0.97609804856598       -2.65664274402588       -1.53960509457831
H           -1.61061723916084       -2.25625066343030        0.03686844249849
H            1.18570898565209       -1.59763320595586       -0.99749685215995
H            0.83953229143441       -2.86019853620595        0.14861990876000
H            0.49425664848531       -1.31472188108000        1.92606849148887
H           -0.10273377869561       -0.07361578815748        0.86527858426317
H            2.83589999588674       -0.88064654172605        1.00340487789574
H            2.14691097210301        0.51930821580042        1.79106562198938
H            3.55346703755283        1.57633059844310       -1.37212892654832
