 xtb: 6.5.1 (fef0646)
          01242317103D

 21 19  0     0  0            999 V2000
   -1.3076   -0.5727   -1.2756 N   0  0  0  0  0  0  0  0  0  0  0  0
   -0.8990   -1.9208   -0.7449 C   0  0  0  0  0  0  0  0  0  0  0  0
    0.5169   -1.8755   -0.1777 C   0  0  0  0  0  0  0  0  0  0  0  0
    0.6762   -0.8441    0.9523 C   0  0  0  0  0  0  0  0  0  0  0  0
    2.0326   -0.1407    0.9259 C   0  0  0  0  0  0  0  0  0  0  0  0
    2.2498    0.6716   -0.3281 C   0  0  0  0  0  0  0  0  0  0  0  0
    3.5265    1.0628   -0.5526 O   0  0  0  0  0  0  0  0  0  0  0  0
    1.3314    0.9542   -1.0689 O   0  0  0  0  0  0  0  0  0  0  0  0
   -3.3466    1.0000    1.0891 Cl  0  0  0  0  0  0  0  0  0  0  0  0
   -1.7558   -0.6179   -2.2032 H   0  0  0  0  0  0  0  0  0  0  0  0
   -0.4585    0.0188   -1.3442 H   0  0  0  0  0  0  0  0  0  0  0  0
   -1.9518   -0.0882   -0.6318 H   0  0  0  0  0  0  0  0  0  0  0  0
   -0.9603   -2.6717   -1.5424 H   0  0  0  0  0  0  0  0  0  0  0  0
   -1.6049   -2.2533    0.0252 H   0  0  0  0  0  0  0  0  0  0  0  0
    1.2011   -1.6105   -0.9921 H   0  0  0  0  0  0  0  0  0  0  0  0
    0.8441   -2.8675    0.1563 H   0  0  0  0  0  0  0  0  0  0  0  0
    0.4951   -1.3162    1.9257 H   0  0  0  0  0  0  0  0  0  0  0  0
   -0.1039   -0.0806    0.8605 H   0  0  0  0  0  0  0  0  0  0  0  0
    2.8373   -0.8771    1.0066 H   0  0  0  0  0  0  0  0  0  0  0  0
    2.1421    0.5222    1.7897 H   0  0  0  0  0  0  0  0  0  0  0  0
    3.5517    1.5777   -1.3721 H   0  0  0  0  0  0  0  0  0  0  0  0
  1  2  1  0  0  0  0
  2  3  1  0  0  0  0
  3  4  1  0  0  0  0
  4  5  1  0  0  0  0
  5  6  1  0  0  0  0
  6  7  1  0  0  0  0
  6  8  2  0  0  0  0
  1 10  1  0  0  0  0
  1 11  1  0  0  0  0
  1 12  1  0  0  0  0
  2 13  1  0  0  0  0
  2 14  1  0  0  0  0
  3 15  1  0  0  0  0
  3 16  1  0  0  0  0
  4 17  1  0  0  0  0
  4 18  1  0  0  0  0
  5 19  1  0  0  0  0
  5 20  1  0  0  0  0
  7 21  1  0  0  0  0
M  END
