41
1.452
N           -5.92729  -0.43281  -0.37184
C           -4.77508  -0.79212   0.50307
C           -4.08685   0.42688   1.10905
C           -3.46478   1.37272   0.07883
C           -2.33988   0.75489  -0.75759
C           -1.10492   0.36708   0.05766
C            0.03918  -0.16947  -0.80431
C            1.27823  -0.55398   0.00644
C            2.41386  -1.10275  -0.85890
C            3.62798  -1.58377  -0.05809
C            4.36365  -0.48324   0.71283
C            5.01109   0.57424  -0.18350
C            5.81409   1.60202   0.59916
H           -6.41774  -1.26995  -0.72316
H           -5.62720   0.11308  -1.19297
H           -6.61734   0.13546   0.14180
H           -4.05524  -1.38866  -0.06846
H           -5.13152  -1.45619   1.30115
H           -3.31719   0.10514   1.82058
H           -4.81943   0.97613   1.71356
H           -3.07546   2.26365   0.58739
H           -4.25347   1.74974  -0.58313
H           -2.03624   1.45776  -1.54356
H           -2.71316  -0.12269  -1.29662
H           -1.37405  -0.38192   0.81055
H           -0.75614   1.23509   0.62897
H            0.31240   0.57720  -1.55894
H           -0.30946  -1.03742  -1.37587
H            1.00325  -1.29736   0.76356
H            1.62645   0.31666   0.57296
H            2.72174  -0.34181  -1.58443
H            2.02453  -1.92841  -1.46785
H            4.33997  -2.07818  -0.73067
H            3.30267  -2.36639   0.63850
H            5.14083  -0.93237   1.34411
H            3.67863   0.00299   1.41607
H            4.23843   1.07893  -0.77586
H            5.65605   0.07780  -0.91954
H            6.26929   2.35008  -0.05352
H            6.61905   1.12849   1.16374
H            5.18579   2.13201   1.31704
