  19

 N          0.1842426036       -1.7912920428       -0.0374877458
 C         -1.1407614921       -1.1002087408       -0.0229789688
 C         -1.3033233919       -0.2259816161        1.2480719721
 C         -1.2534019718        1.2436667165        0.7882152004
 C         -1.6823124719        1.2371001446       -0.6899947697
 C         -1.2917565441       -0.1496356741       -1.2412418847
 Cl         2.4913943359        0.8340536857        0.0616440624
 H          0.2953836062       -2.4135895310        0.7741164592
 H          0.9384963269       -1.0857660188       -0.0014698328
 H          0.3109835493       -2.3455608464       -0.8948646608
 H         -1.9356006463       -1.8625979838       -0.0483598615
 H         -0.5133206358       -0.4516667552        1.9723505964
 H         -2.2548599633       -0.4415465371        1.7484421870
 H         -0.2359907697        1.6418323088        0.8873154225
 H         -1.8988649218        1.8864842594        1.4002951989
 H         -1.2110793348        2.0496769493       -1.2570756651
 H         -2.7652746299        1.3904516515       -0.7713905118
 H         -0.3378373611       -0.0953102838       -1.7758428585
 H         -2.0267090650       -0.5259673143       -1.9621400692
          19
        -24.34107555
 N          0.1251303902       -1.1278955516       -0.5216711450
 C         -0.7462575384       -0.5717290964        0.5569572759
 C         -0.7660384028        0.9724353929        0.5183412720
 C         -1.9845302243        1.3686604999       -0.3410065405
 C         -2.9266859447        0.1399333138       -0.3862799650
 C         -2.2182631108       -1.0067685980        0.3716001921
 Cl         3.3388122490        0.1675013142       -0.0182140329
 H          1.0963255061       -0.7952394871       -0.4183947589
 H         -0.2157141775       -0.8228766205       -1.4457879155
 H          0.1322680252       -2.1568707773       -0.5093130093
 H         -0.3659937322       -0.9218189112        1.5303030467
 H          0.1700646540        1.3624544486        0.1046389857
 H         -0.8560840485        1.3804942961        1.5316500809
 H         -1.6643144724        1.6453367669       -1.3530982238
 H         -2.4917494213        2.2522028048        0.0656702957
 H         -3.1357029941       -0.1503120578       -1.4230591748
 H         -3.9015597431        0.3671587874        0.0630093857
 H         -2.2754797340       -1.9537679834       -0.1757955408
 H         -2.6912982020       -1.1797104305        1.3449608232
