  19

 N          1.8783500000       -0.0294500000        0.2096900000
 C          0.7002200000        0.0859800000       -0.6542300000
 C         -0.1324900000       -1.1928300000       -0.5955900000
 C         -1.3117000000       -0.8560000000        0.3071000000
 C         -1.5829800000        0.6066600000        0.0030800000
 C         -0.1982900000        1.2223800000       -0.1597300000
 Cl         1.8250700000       -0.6029600000        3.0204200000
 H          2.5075700000       -0.8099400000        0.0013000000
 H          1.6164100000       -0.2435000000        1.2183000000
 H          2.4332900000        0.8220400000        0.3241500000
 H          1.0777000000        0.2721800000       -1.6637300000
 H          0.4199000000       -2.0689100000       -0.2412700000
 H         -0.5068000000       -1.4250500000       -1.6004500000
 H         -1.0387300000       -0.9821600000        1.3599300000
 H         -2.1800600000       -1.4897000000        0.1049300000
 H         -2.1609200000        1.0942600000        0.7933200000
 H         -2.1453200000        0.6979200000       -0.9337400000
 H          0.1434600000        1.6347400000        0.7975500000
 H         -0.2250400000        2.0506400000       -0.8752500000
