  18

 N          3.7264438588       -0.0831023790       -0.8585253762
 C          2.4955758081        0.0816045366       -0.0357509336
 C          2.8162651845        0.7971778192        1.2506697712
 C          2.8055563715        2.1860782389        1.2996498021
 C          3.1174378596        2.8456894771        2.4754995690
 C          3.4447191925        2.1219149053        3.6106232211
 C          3.4586308195        0.7373417426        3.5679067023
 C          3.1478659598        0.0771697198        2.3917778524
 H          3.5097510889       -0.5657563838       -1.7384635131
 H          4.4238891521       -0.6308987657       -0.3412812877
 H          4.1331391542        0.8349406635       -1.0732836095
 H          2.0821527359       -0.9027051201        0.1820073903
 H          1.7648121981        0.6560594943       -0.6044131712
 H          2.5377359051        2.7602075239        0.4256143899
 H          3.1020370774        3.9246248121        2.5116412979
 H          3.6835552752        2.6366208216        4.5294588999
 H          3.7089499580        0.1745388535        4.4546404706
 H          3.1505724006       -1.0021259599        2.3733685246
