 xtb: 6.5.1 (fef0646)
          01242310033D

 12 10  0     0  0            999 V2000
    1.0838    1.1317    0.3012 N   0  0  0  0  0  0  0  0  0  0  0  0
    2.0371    0.1989   -0.3612 C   0  0  0  0  0  0  0  0  0  0  0  0
    1.9414   -1.2034    0.2040 C   0  0  0  0  0  0  0  0  0  0  0  0
   -2.1500   -0.1108   -0.0885 Cl  0  0  0  0  0  0  0  0  0  0  0  0
    1.1344    2.0878   -0.0884 H   0  0  0  0  0  0  0  0  0  0  0  0
    1.2721    1.1958    1.3184 H   0  0  0  0  0  0  0  0  0  0  0  0
    0.1112    0.7988    0.1921 H   0  0  0  0  0  0  0  0  0  0  0  0
    3.0594    0.5847   -0.2535 H   0  0  0  0  0  0  0  0  0  0  0  0
    1.8441    0.1872   -1.4420 H   0  0  0  0  0  0  0  0  0  0  0  0
    2.1561   -1.2112    1.2748 H   0  0  0  0  0  0  0  0  0  0  0  0
    2.6408   -1.8915   -0.2780 H   0  0  0  0  0  0  0  0  0  0  0  0
    0.9363   -1.6112    0.0759 H   0  0  0  0  0  0  0  0  0  0  0  0
  1  2  1  0  0  0  0
  2  3  1  0  0  0  0
  1  5  1  0  0  0  0
  1  6  1  0  0  0  0
  1  7  1  0  0  0  0
  2  8  1  0  0  0  0
  2  9  1  0  0  0  0
  3 10  1  0  0  0  0
  3 11  1  0  0  0  0
  3 12  1  0  0  0  0
M  END
