29
0.609
N            4.30403   0.11653   0.61479
C            3.65418  -0.35692  -0.64053
C            2.25135   0.20944  -0.84145
C            1.23817  -0.27803   0.19511
C           -0.18155   0.23508  -0.05984
C           -1.19224  -0.24671   0.98319
C           -2.61271   0.28937   0.77294
C           -3.30502  -0.25209  -0.48011
C           -4.73656   0.24173  -0.62927
H            5.26815  -0.24002   0.70204
H            3.78777  -0.19253   1.45115
H            4.35290   1.14569   0.64138
H            3.61539  -1.45275  -0.63764
H            4.29389  -0.08725  -1.49088
H            1.88716  -0.04530  -1.84436
H            2.29581   1.30424  -0.82092
H            1.55906   0.02389   1.19807
H            1.23246  -1.37390   0.21377
H           -0.50318  -0.07245  -1.06080
H           -0.17550   1.33080  -0.08480
H           -0.83305   0.03838   1.97983
H           -1.21388  -1.34247   0.99099
H           -2.58800   1.38431   0.73185
H           -3.23129   0.05091   1.64724
H           -3.28990  -1.34889  -0.45518
H           -2.72454   0.02114  -1.36926
H           -4.77560   1.33062  -0.69247
H           -5.34865  -0.05390   0.22461
H           -5.21541  -0.15552  -1.52703
