 xtb: 6.5.1 (fef0646)
          01232319563D

 17 16  0     0  0            999 V2000
    0.9288   -0.0607    0.0901 N   0  0  0  0  0  0  0  0  0  0  0  0
    2.4276   -0.0428    0.0872 C   0  0  0  0  0  0  0  0  0  0  0  0
    2.9441    1.3733   -0.1159 C   0  0  0  0  0  0  0  0  0  0  0  0
    4.4763    1.4018   -0.1194 C   0  0  0  0  0  0  0  0  0  0  0  0
    4.9986    2.8183   -0.3227 C   0  0  0  0  0  0  0  0  0  0  0  0
    0.5623   -1.0111    0.2262 H   0  0  0  0  0  0  0  0  0  0  0  0
    0.5765    0.3073   -0.8037 H   0  0  0  0  0  0  0  0  0  0  0  0
    0.5769    0.5432    0.8450 H   0  0  0  0  0  0  0  0  0  0  0  0
    2.7781   -0.6940   -0.7145 H   0  0  0  0  0  0  0  0  0  0  0  0
    2.7785   -0.4426    1.0395 H   0  0  0  0  0  0  0  0  0  0  0  0
    2.5840    2.0221    0.6850 H   0  0  0  0  0  0  0  0  0  0  0  0
    2.5846    1.7706   -1.0672 H   0  0  0  0  0  0  0  0  0  0  0  0
    4.8489    0.7591   -0.9181 H   0  0  0  0  0  0  0  0  0  0  0  0
    4.8482    1.0099    0.8281 H   0  0  0  0  0  0  0  0  0  0  0  0
    4.6585    3.2228   -1.2726 H   0  0  0  0  0  0  0  0  0  0  0  0
    6.0840    2.8185   -0.3224 H   0  0  0  0  0  0  0  0  0  0  0  0
    4.6579    3.4738    0.4747 H   0  0  0  0  0  0  0  0  0  0  0  0
  1  2  1  0  0  0  0
  2  3  1  0  0  0  0
  3  4  1  0  0  0  0
  4  5  1  0  0  0  0
  1  6  1  0  0  0  0
  1  7  1  0  0  0  0
  1  8  1  0  0  0  0
  2  9  1  0  0  0  0
  2 10  1  0  0  0  0
  3 11  1  0  0  0  0
  3 12  1  0  0  0  0
  4 13  1  0  0  0  0
  4 14  1  0  0  0  0
  5 15  1  0  0  0  0
  5 16  1  0  0  0  0
  5 17  1  0  0  0  0
M  CHG  1   1   1
M  END
