33

N          3.03273        1.19104       -3.22680
C          2.52139        1.83756       -1.98766
C          3.10918        1.16405       -0.74528
C          4.61667        1.23022       -0.68408
C          5.28010        2.46241       -0.61859
C          6.67762        2.51520       -0.55229
C          5.37734        0.05382       -0.66151
C          6.77410        0.11647       -0.59410
C          7.44419        1.34331       -0.54900
N          8.85012        1.32757       -0.45882
N          9.37767        2.27329       -1.08171
C         10.78718        2.18140       -1.10937
C         11.47662        0.96132       -1.19594
C         12.86837        0.92811       -1.31404
C         13.59172        2.11748       -1.35167
C         12.92548        3.33782       -1.25948
C         11.53270        3.36693       -1.13967
H          2.65749        1.64351       -4.06929
H          2.78817        0.19384       -3.27018
H          4.05972        1.25634       -3.27532
H          1.43210        1.74105       -2.00813
H          2.78823        2.89635       -2.05583
H          2.77783        0.11863       -0.71371
H          2.70407        1.64175        0.15581
H          4.73033        3.40133       -0.58636
H          7.17305        3.48188       -0.48380
H          4.90435       -0.92547       -0.66681
H          7.35297       -0.80518       -0.55928
H         10.92814        0.02355       -1.18591
H         13.38499       -0.02593       -1.38641
H         14.67379        2.09308       -1.45705
H         13.48959        4.26653       -1.29117
H         11.02386        4.32581       -1.07971
