20
2.299
N           -1.87798   1.03356  -0.27781
C           -1.85200  -0.37038   0.22890
C           -0.47255  -0.85453   0.67766
C            0.57340  -0.93659  -0.45176
C            1.42227   0.32937  -0.63582
C            2.43516   0.54865   0.48135
H           -1.47554   1.67760   0.41212
H           -2.83805   1.34050  -0.46980
H           -1.34968   1.12322  -1.15297
H           -2.24127  -1.03723  -0.54896
H           -2.55955  -0.45020   1.06362
H           -0.58240  -1.84227   1.14448
H           -0.10290  -0.20566   1.47749
H            0.06223  -1.19200  -1.38753
H            1.25504  -1.77646  -0.26826
H            0.76990   1.20449  -0.71833
H            1.95251   0.27815  -1.59594
H            3.03988   1.44128   0.31099
H            3.11839  -0.29742   0.56495
H            1.94934   0.66783   1.44980
