20
 xtb: 6.5.1 (fef0646)
N           -1.86952262401371        1.02876381159789       -0.30282257383510
C           -1.85153778112520       -0.36531201555018        0.24235152239870
C           -0.46978189237146       -0.86714540768532        0.66532775507384
C            0.57878697627362       -0.93765700657280       -0.46122685480196
C            1.42188202018478        0.33425995083724       -0.62725760272719
C            2.42012357766020        0.55611606919418        0.50325326049711
H           -1.33912143678302        1.65910345301183        0.34349946418972
H           -2.84723134844121        1.38844319657730       -0.34066698916002
H           -1.47316914559686        1.09042110295747       -1.23793926106197
H           -2.25660843531196       -1.03976310038207       -0.53385552302533
H           -2.54806333186698       -0.43739681276981        1.07803253676265
H           -0.58314448762215       -1.84764256767962        1.13697921073347
H           -0.10052013398897       -0.21358892375586        1.47684986023050
H            0.06521781879242       -1.19019760262909       -1.39149882289404
H            1.25690303560472       -1.77670009368998       -0.27189346348363
H            0.76729925346248        1.20323799012888       -0.71803614188967
H            1.95636339262723        0.28154596542569       -1.59126745665415
H            3.03495899012732        1.44433117052772        0.31981105158004
H            3.11508387911679       -0.29417248763491        0.57369751676146
H            1.94190545950116        0.66916584106239        1.45483338439458
