 xtb: 6.5.1 (fef0646)
          01242317103D

 20 19  0     0  0            999 V2000
   -1.8780    1.0336   -0.2778 N   0  0  0  0  0  0  0  0  0  0  0  0
   -1.8520   -0.3704    0.2289 C   0  0  0  0  0  0  0  0  0  0  0  0
   -0.4726   -0.8545    0.6777 C   0  0  0  0  0  0  0  0  0  0  0  0
    0.5734   -0.9366   -0.4518 C   0  0  0  0  0  0  0  0  0  0  0  0
    1.4223    0.3294   -0.6358 C   0  0  0  0  0  0  0  0  0  0  0  0
    2.4352    0.5486    0.4813 C   0  0  0  0  0  0  0  0  0  0  0  0
   -1.4755    1.6776    0.4121 H   0  0  0  0  0  0  0  0  0  0  0  0
   -2.8380    1.3405   -0.4698 H   0  0  0  0  0  0  0  0  0  0  0  0
   -1.3497    1.1232   -1.1530 H   0  0  0  0  0  0  0  0  0  0  0  0
   -2.2413   -1.0372   -0.5490 H   0  0  0  0  0  0  0  0  0  0  0  0
   -2.5595   -0.4502    1.0636 H   0  0  0  0  0  0  0  0  0  0  0  0
   -0.5824   -1.8423    1.1445 H   0  0  0  0  0  0  0  0  0  0  0  0
   -0.1029   -0.2057    1.4775 H   0  0  0  0  0  0  0  0  0  0  0  0
    0.0622   -1.1920   -1.3875 H   0  0  0  0  0  0  0  0  0  0  0  0
    1.2550   -1.7765   -0.2683 H   0  0  0  0  0  0  0  0  0  0  0  0
    0.7699    1.2045   -0.7183 H   0  0  0  0  0  0  0  0  0  0  0  0
    1.9525    0.2781   -1.5959 H   0  0  0  0  0  0  0  0  0  0  0  0
    3.0399    1.4413    0.3110 H   0  0  0  0  0  0  0  0  0  0  0  0
    3.1184   -0.2974    0.5649 H   0  0  0  0  0  0  0  0  0  0  0  0
    1.9493    0.6678    1.4498 H   0  0  0  0  0  0  0  0  0  0  0  0
  1  2  1  0  0  0  0
  2  3  1  0  0  0  0
  3  4  1  0  0  0  0
  4  5  1  0  0  0  0
  5  6  1  0  0  0  0
  1  7  1  0  0  0  0
  1  8  1  0  0  0  0
  1  9  1  0  0  0  0
  2 10  1  0  0  0  0
  2 11  1  0  0  0  0
  3 12  1  0  0  0  0
  3 13  1  0  0  0  0
  4 14  1  0  0  0  0
  4 15  1  0  0  0  0
  5 16  1  0  0  0  0
  5 17  1  0  0  0  0
  6 18  1  0  0  0  0
  6 19  1  0  0  0  0
  6 20  1  0  0  0  0
M  CHG  1   1   1
M  END
