17
1.123
N           -3.80469   1.08050   0.15730
C           -3.47980  -0.29917  -0.31911
C           -2.21043  -0.88086   0.30476
C           -0.92240  -0.16732  -0.12748
C            0.33444  -0.79189   0.45745
Br           1.92433   0.15321  -0.09259
H           -4.69542   1.40466  -0.23189
H           -3.08228   1.75085  -0.12296
H           -3.87987   1.10255   1.17861
H           -3.38647  -0.28948  -1.41152
H           -4.33494  -0.95150  -0.09964
H           -2.12777  -1.94520   0.05216
H           -2.29555  -0.84912   1.39639
H           -0.96736   0.88990   0.16199
H           -0.85409  -0.16457  -1.22353
H            0.44594  -1.83252   0.14358
H            0.31125  -0.78410   1.54983
