17
 xtb: 6.5.1 (fef0646)
N           -2.14242278868747       -1.73305654414243        0.67032266608167
C           -1.86591030254511       -0.87908020344850       -0.53891578838127
C           -2.10993275852728        0.61124119923289       -0.29452512378156
C           -1.10862883633098        1.28562428346724        0.65890684779283
C            0.28031991817522        1.51442708713215        0.07844046174774
Br           1.33743323093927       -0.06085706552788       -0.16353594219379
H           -1.87712215535929       -2.72000200947797        0.39590420010670
H           -2.98400255370764       -1.65541994500472        1.02740133975351
H           -1.36888919629735       -1.48745770735959        1.38449993348922
H           -2.56422748029098       -1.19836688442096       -1.34088161388668
H           -0.87124070095653       -0.97752084291365       -0.97958215452636
H           -3.13309289819425        0.72059883991160        0.18020078879554
H           -2.19076239633829        1.19063245259390       -1.20698773622723
H           -0.99265937511305        0.72996781864046        1.57704930127756
H           -1.49373663619955        2.28367643941838        0.96732421227125
H            0.88706864602741        2.18745193998649        0.62226328332820
H            0.19402041019762        1.94313422607340       -0.97495972986058
