 xtb: 6.5.1 (fef0646)
          02032320393D

 17 16  0     0  0            999 V2000
   -3.8047    1.0805    0.1573 N   0  0  0  0  0  0  0  0  0  0  0  0
   -3.4798   -0.2992   -0.3191 C   0  0  0  0  0  0  0  0  0  0  0  0
   -2.2104   -0.8808    0.3048 C   0  0  0  0  0  0  0  0  0  0  0  0
   -0.9224   -0.1673   -0.1275 C   0  0  0  0  0  0  0  0  0  0  0  0
    0.3344   -0.7919    0.4575 C   0  0  0  0  0  0  0  0  0  0  0  0
    1.9243    0.1532   -0.0926 Br  0  0  0  0  0  0  0  0  0  0  0  0
   -4.6954    1.4047   -0.2319 H   0  0  0  0  0  0  0  0  0  0  0  0
   -3.0823    1.7509   -0.1230 H   0  0  0  0  0  0  0  0  0  0  0  0
   -3.8799    1.1026    1.1786 H   0  0  0  0  0  0  0  0  0  0  0  0
   -3.3865   -0.2895   -1.4115 H   0  0  0  0  0  0  0  0  0  0  0  0
   -4.3349   -0.9515   -0.0996 H   0  0  0  0  0  0  0  0  0  0  0  0
   -2.1278   -1.9452    0.0522 H   0  0  0  0  0  0  0  0  0  0  0  0
   -2.2955   -0.8491    1.3964 H   0  0  0  0  0  0  0  0  0  0  0  0
   -0.9674    0.8899    0.1620 H   0  0  0  0  0  0  0  0  0  0  0  0
   -0.8541   -0.1646   -1.2235 H   0  0  0  0  0  0  0  0  0  0  0  0
    0.4459   -1.8325    0.1436 H   0  0  0  0  0  0  0  0  0  0  0  0
    0.3113   -0.7841    1.5498 H   0  0  0  0  0  0  0  0  0  0  0  0
  1  2  1  0  0  0  0
  2  3  1  0  0  0  0
  3  4  1  0  0  0  0
  4  5  1  0  0  0  0
  5  6  1  0  0  0  0
  1  7  1  0  0  0  0
  1  8  1  0  0  0  0
  1  9  1  0  0  0  0
  2 10  1  0  0  0  0
  2 11  1  0  0  0  0
  3 12  1  0  0  0  0
  3 13  1  0  0  0  0
  4 14  1  0  0  0  0
  4 15  1  0  0  0  0
  5 16  1  0  0  0  0
  5 17  1  0  0  0  0
M  CHG  1   1   1
M  END
