 xtb: 6.5.1 (fef0646)
          01242317093D

 18 16  0     0  0            999 V2000
   -2.5204   -0.8137   -0.4812 N   0  0  0  0  0  0  0  0  0  0  0  0
   -1.5242    0.2628   -0.7510 C   0  0  0  0  0  0  0  0  0  0  0  0
   -0.0885   -0.2421   -0.6716 C   0  0  0  0  0  0  0  0  0  0  0  0
    0.9473    0.8505   -0.9363 C   0  0  0  0  0  0  0  0  0  0  0  0
    2.3741    0.3449   -0.8122 C   0  0  0  0  0  0  0  0  0  0  0  0
    2.8079   -0.2679    0.9662 Br  0  0  0  0  0  0  0  0  0  0  0  0
   -5.7891    0.5029   -0.6631 Cl  0  0  0  0  0  0  0  0  0  0  0  0
   -2.3826   -1.2161    0.4581 H   0  0  0  0  0  0  0  0  0  0  0  0
   -2.4290   -1.5781   -1.1628 H   0  0  0  0  0  0  0  0  0  0  0  0
   -3.4886   -0.4595   -0.5327 H   0  0  0  0  0  0  0  0  0  0  0  0
   -1.6669    1.0845   -0.0394 H   0  0  0  0  0  0  0  0  0  0  0  0
   -1.7093    0.6991   -1.7396 H   0  0  0  0  0  0  0  0  0  0  0  0
    0.0526   -1.0650   -1.3810 H   0  0  0  0  0  0  0  0  0  0  0  0
    0.0896   -0.6844    0.3146 H   0  0  0  0  0  0  0  0  0  0  0  0
    0.7935    1.6749   -0.2294 H   0  0  0  0  0  0  0  0  0  0  0  0
    0.7790    1.2829   -1.9313 H   0  0  0  0  0  0  0  0  0  0  0  0
    3.1011    1.1208   -1.0629 H   0  0  0  0  0  0  0  0  0  0  0  0
    2.5513   -0.4936   -1.4883 H   0  0  0  0  0  0  0  0  0  0  0  0
  1  2  1  0  0  0  0
  2  3  1  0  0  0  0
  3  4  1  0  0  0  0
  4  5  1  0  0  0  0
  5  6  1  0  0  0  0
  1  8  1  0  0  0  0
  1  9  1  0  0  0  0
  1 10  1  0  0  0  0
  2 11  1  0  0  0  0
  2 12  1  0  0  0  0
  3 13  1  0  0  0  0
  3 14  1  0  0  0  0
  4 15  1  0  0  0  0
  4 16  1  0  0  0  0
  5 17  1  0  0  0  0
  5 18  1  0  0  0  0
M  END
