 xtb: 6.5.1 (fef0646)
          01232319113D

 36 36  0     0  0            999 V2000
    0.7500    1.4445   -1.7344 N   0  0  0  0  0  0  0  0  0  0  0  0
    2.1817    1.5947   -1.9979 C   0  0  0  0  0  0  0  0  0  0  0  0
    2.9676    1.0857   -0.7942 C   0  0  0  0  0  0  0  0  0  0  0  0
    4.4661    1.1365   -0.9265 C   0  0  0  0  0  0  0  0  0  0  0  0
    5.1282    1.5679   -2.0685 C   0  0  0  0  0  0  0  0  0  0  0  0
    6.5089    1.5903   -2.1258 C   0  0  0  0  0  0  0  0  0  0  0  0
    7.2851    1.1789   -1.0423 C   0  0  0  0  0  0  0  0  0  0  0  0
    8.7360    1.1856   -1.0512 C   0  0  0  0  0  0  0  0  0  0  0  0
    9.5149    1.8137   -1.9427 C   0  0  0  0  0  0  0  0  0  0  0  0
   10.9663    1.8370   -1.9498 C   0  0  0  0  0  0  0  0  0  0  0  0
   11.7491    0.9704   -1.1829 C   0  0  0  0  0  0  0  0  0  0  0  0
   13.1276    1.0382   -1.2265 C   0  0  0  0  0  0  0  0  0  0  0  0
   13.7595    1.9709   -2.0335 C   0  0  0  0  0  0  0  0  0  0  0  0
   12.9987    2.8336   -2.8054 C   0  0  0  0  0  0  0  0  0  0  0  0
   11.6203    2.7634   -2.7674 C   0  0  0  0  0  0  0  0  0  0  0  0
    6.6132    0.7322    0.1000 C   0  0  0  0  0  0  0  0  0  0  0  0
    5.2370    0.7183    0.1562 C   0  0  0  0  0  0  0  0  0  0  0  0
    0.1346   -1.3655   -1.1635 Cl  0  0  0  0  0  0  0  0  0  0  0  0
    0.1954    1.7354   -2.5318 H   0  0  0  0  0  0  0  0  0  0  0  0
    0.4724    1.9916   -0.9259 H   0  0  0  0  0  0  0  0  0  0  0  0
    0.4250   -0.0496   -1.4352 H   0  0  0  0  0  0  0  0  0  0  0  0
    2.4502    2.6397   -2.2085 H   0  0  0  0  0  0  0  0  0  0  0  0
    2.4132    0.9892   -2.8767 H   0  0  0  0  0  0  0  0  0  0  0  0
    2.6669    0.0520   -0.6053 H   0  0  0  0  0  0  0  0  0  0  0  0
    2.6793    1.6677    0.0875 H   0  0  0  0  0  0  0  0  0  0  0  0
    4.5711    1.8899   -2.9346 H   0  0  0  0  0  0  0  0  0  0  0  0
    6.9870    1.9185   -3.0360 H   0  0  0  0  0  0  0  0  0  0  0  0
    9.1922    0.6500   -0.2289 H   0  0  0  0  0  0  0  0  0  0  0  0
    9.0546    2.3970   -2.7298 H   0  0  0  0  0  0  0  0  0  0  0  0
   11.2758    0.2279   -0.5584 H   0  0  0  0  0  0  0  0  0  0  0  0
   13.7166    0.3570   -0.6290 H   0  0  0  0  0  0  0  0  0  0  0  0
   14.8379    2.0213   -2.0641 H   0  0  0  0  0  0  0  0  0  0  0  0
   13.4833    3.5613   -3.4404 H   0  0  0  0  0  0  0  0  0  0  0  0
   11.0323    3.4398   -3.3724 H   0  0  0  0  0  0  0  0  0  0  0  0
    7.1861    0.4001    0.9545 H   0  0  0  0  0  0  0  0  0  0  0  0
    4.7410    0.3723    1.0522 H   0  0  0  0  0  0  0  0  0  0  0  0
  1  2  1  0  0  0  0
  2  3  1  0  0  0  0
  3  4  1  0  0  0  0
  4  5  4  0  0  0  0
  5  6  4  0  0  0  0
  6  7  4  0  0  0  0
  7  8  1  0  0  0  0
  8  9  2  0  0  0  0
  9 10  1  0  0  0  0
 10 11  4  0  0  0  0
 11 12  4  0  0  0  0
 12 13  4  0  0  0  0
 13 14  4  0  0  0  0
 10 15  4  0  0  0  0
 14 15  4  0  0  0  0
  7 16  4  0  0  0  0
  4 17  4  0  0  0  0
 16 17  4  0  0  0  0
  1 19  1  0  0  0  0
  1 20  1  0  0  0  0
 18 21  1  0  0  0  0
  2 22  1  0  0  0  0
  2 23  1  0  0  0  0
  3 24  1  0  0  0  0
  3 25  1  0  0  0  0
  5 26  1  0  0  0  0
  6 27  1  0  0  0  0
  8 28  1  0  0  0  0
  9 29  1  0  0  0  0
 11 30  1  0  0  0  0
 12 31  1  0  0  0  0
 13 32  1  0  0  0  0
 14 33  1  0  0  0  0
 15 34  1  0  0  0  0
 16 35  1  0  0  0  0
 17 36  1  0  0  0  0
M  END
