19
 xtb: 6.5.1 (fef0646)
N           -1.33557500178736       -0.94150755119319        0.56960876599028
C           -0.73114384093254       -1.45638075777350       -0.69375861711805
C            0.77601198596100       -1.68888503964939       -0.57621645518637
C            1.54876873332904       -0.42076582548108       -0.43607335049666
C            2.16373108838141        0.24317795554682       -1.44926415216292
C            2.82181187689283        1.43955456781976       -1.03412159041693
C            2.70401308502621        1.67838922331439        0.29142396466818
S            1.77147192656371        0.44470243537093        1.06213229194655
Cl          -4.26574764437373        0.17537401573269        0.26170388533975
H           -0.65847330537825       -0.21441485825843        0.94724588494528
H           -1.26248137275258       -1.71356696681546        1.31787113223038
H           -2.23314717580031       -0.61469688347987        0.50056550996551
H           -0.90265528100407       -0.75555555232505       -1.48736697051947
H           -1.21322771290941       -2.40134385506872       -0.97958699491498
H            1.17927799011247       -2.23811189292357       -1.47509499691795
H            1.03273645488328       -2.34830230056611        0.26502685640600
H            2.17633914940959       -0.09930375982144       -2.47589437050549
H            3.36109517215626        2.09998744525900       -1.70877133357519
H            3.10763580621556        2.52903580411379        0.81670496199424
