 xtb: 6.5.1 (fef0646)
          01242310093D

 19 18  0     0  0            999 V2000
   -1.2346   -0.9896    0.6048 N   0  0  0  0  0  0  0  0  0  0  0  0
   -0.6828   -1.4869   -0.6855 C   0  0  0  0  0  0  0  0  0  0  0  0
    0.8258   -1.7067   -0.5978 C   0  0  0  0  0  0  0  0  0  0  0  0
    1.5792   -0.4286   -0.4460 C   0  0  0  0  0  0  0  0  0  0  0  0
    2.1895    0.2467   -1.4538 C   0  0  0  0  0  0  0  0  0  0  0  0
    2.8287    1.4507   -1.0320 C   0  0  0  0  0  0  0  0  0  0  0  0
    2.6987    1.6865    0.2926 C   0  0  0  0  0  0  0  0  0  0  0  0
    1.7838    0.4351    1.0527 S   0  0  0  0  0  0  0  0  0  0  0  0
   -4.4580    0.2435    0.2590 Cl  0  0  0  0  0  0  0  0  0  0  0  0
   -0.6242   -0.2309    0.9545 H   0  0  0  0  0  0  0  0  0  0  0  0
   -1.2329   -1.7295    1.3244 H   0  0  0  0  0  0  0  0  0  0  0  0
   -2.1995   -0.6250    0.5178 H   0  0  0  0  0  0  0  0  0  0  0  0
   -0.8955   -0.7623   -1.4812 H   0  0  0  0  0  0  0  0  0  0  0  0
   -1.2001   -2.4101   -0.9758 H   0  0  0  0  0  0  0  0  0  0  0  0
    1.1924   -2.2374   -1.4852 H   0  0  0  0  0  0  0  0  0  0  0  0
    1.0531   -2.3568    0.2547 H   0  0  0  0  0  0  0  0  0  0  0  0
    2.1869   -0.0976   -2.4774 H   0  0  0  0  0  0  0  0  0  0  0  0
    3.3618    2.1056   -1.7068 H   0  0  0  0  0  0  0  0  0  0  0  0
    3.1013    2.5330    0.8182 H   0  0  0  0  0  0  0  0  0  0  0  0
  1  2  1  0  0  0  0
  2  3  1  0  0  0  0
  3  4  1  0  0  0  0
  4  5  2  0  0  0  0
  5  6  4  0  0  0  0
  6  7  2  0  0  0  0
  4  8  1  0  0  0  0
  7  8  1  0  0  0  0
  1 10  1  0  0  0  0
  1 11  1  0  0  0  0
  1 12  1  0  0  0  0
  2 13  1  0  0  0  0
  2 14  1  0  0  0  0
  3 15  1  0  0  0  0
  3 16  1  0  0  0  0
  5 17  1  0  0  0  0
  6 18  1  0  0  0  0
  7 19  1  0  0  0  0
M  END
