 xtb: 6.5.1 (fef0646)
          01232319013D

 34 34  0     0  0            999 V2000
    2.6713   -1.9261    1.8352 N   0  0  0  0  0  0  0  0  0  0  0  0
    2.3423   -2.4671    0.5182 C   0  0  0  0  0  0  0  0  0  0  0  0
    2.9312   -1.5663   -0.5746 C   0  0  0  0  0  0  0  0  0  0  0  0
    4.4301   -1.5439   -0.4910 C   0  0  0  0  0  0  0  0  0  0  0  0
    5.1851   -2.5657   -1.0628 C   0  0  0  0  0  0  0  0  0  0  0  0
    6.5568   -2.5829   -0.9433 C   0  0  0  0  0  0  0  0  0  0  0  0
    5.0836   -0.5262    0.2000 C   0  0  0  0  0  0  0  0  0  0  0  0
    6.4579   -0.5223    0.3122 C   0  0  0  0  0  0  0  0  0  0  0  0
    7.2126   -1.5595   -0.2460 C   0  0  0  0  0  0  0  0  0  0  0  0
    8.5821   -1.4669   -0.1230 N   0  0  0  0  0  0  0  0  0  0  0  0
    9.2497   -2.5259   -0.3398 N   0  0  0  0  0  0  0  0  0  0  0  0
   10.6246   -2.4189   -0.2414 C   0  0  0  0  0  0  0  0  0  0  0  0
   11.2980   -1.2806    0.2205 C   0  0  0  0  0  0  0  0  0  0  0  0
   12.6733   -1.2853    0.3107 C   0  0  0  0  0  0  0  0  0  0  0  0
   13.3946   -2.4127   -0.0583 C   0  0  0  0  0  0  0  0  0  0  0  0
   12.7348   -3.5428   -0.5177 C   0  0  0  0  0  0  0  0  0  0  0  0
   11.3576   -3.5525   -0.6059 C   0  0  0  0  0  0  0  0  0  0  0  0
    1.7678    0.8500    2.0360 Cl  0  0  0  0  0  0  0  0  0  0  0  0
    2.2588   -2.4793    2.5779 H   0  0  0  0  0  0  0  0  0  0  0  0
    2.1797   -0.4661    1.9392 H   0  0  0  0  0  0  0  0  0  0  0  0
    3.6790   -1.8950    1.9622 H   0  0  0  0  0  0  0  0  0  0  0  0
    1.2540   -2.4842    0.4279 H   0  0  0  0  0  0  0  0  0  0  0  0
    2.7191   -3.4919    0.3901 H   0  0  0  0  0  0  0  0  0  0  0  0
    2.5346   -0.5602   -0.4439 H   0  0  0  0  0  0  0  0  0  0  0  0
    2.6143   -1.9491   -1.5456 H   0  0  0  0  0  0  0  0  0  0  0  0
    4.6845   -3.3523   -1.6108 H   0  0  0  0  0  0  0  0  0  0  0  0
    7.1517   -3.3647   -1.3908 H   0  0  0  0  0  0  0  0  0  0  0  0
    4.5026    0.2706    0.6404 H   0  0  0  0  0  0  0  0  0  0  0  0
    6.9705    0.2639    0.8444 H   0  0  0  0  0  0  0  0  0  0  0  0
   10.7159   -0.4174    0.5060 H   0  0  0  0  0  0  0  0  0  0  0  0
   13.1930   -0.4088    0.6704 H   0  0  0  0  0  0  0  0  0  0  0  0
   14.4722   -2.4103    0.0155 H   0  0  0  0  0  0  0  0  0  0  0  0
   13.2999   -4.4181   -0.8031 H   0  0  0  0  0  0  0  0  0  0  0  0
   10.8246   -4.4215   -0.9604 H   0  0  0  0  0  0  0  0  0  0  0  0
  1  2  1  0  0  0  0
  2  3  1  0  0  0  0
  3  4  1  0  0  0  0
  4  5  4  0  0  0  0
  5  6  4  0  0  0  0
  4  7  4  0  0  0  0
  7  8  4  0  0  0  0
  6  9  4  0  0  0  0
  8  9  4  0  0  0  0
  9 10  1  0  0  0  0
 10 11  2  0  0  0  0
 11 12  1  0  0  0  0
 12 13  4  0  0  0  0
 13 14  4  0  0  0  0
 14 15  4  0  0  0  0
 15 16  4  0  0  0  0
 12 17  4  0  0  0  0
 16 17  4  0  0  0  0
  1 19  1  0  0  0  0
 18 20  1  0  0  0  0
  1 21  1  0  0  0  0
  2 22  1  0  0  0  0
  2 23  1  0  0  0  0
  3 24  1  0  0  0  0
  3 25  1  0  0  0  0
  5 26  1  0  0  0  0
  6 27  1  0  0  0  0
  7 28  1  0  0  0  0
  8 29  1  0  0  0  0
 13 30  1  0  0  0  0
 14 31  1  0  0  0  0
 15 32  1  0  0  0  0
 16 33  1  0  0  0  0
 17 34  1  0  0  0  0
M  END
