  22

 N         -3.5306510822       -1.1025637287        1.3358031653
 C         -2.1315806795       -0.5890969066        1.3219968051
 C         -1.3689161023       -0.9656616886        0.0557876249
 C          0.0375221720       -0.4684184283        0.0459614611
 C          1.0532491654       -1.3058848706       -0.3988393135
 F          0.7681348732       -2.5639185834       -0.7773169468
 C          2.3647037601       -0.8556801944       -0.4482536543
 F          3.3384173235       -1.6719635687       -0.8786760442
 C          2.6671573991        0.4385990767       -0.0568727660
 F          3.9332208890        0.8777795935       -0.1088974453
 C          1.6585529722        1.2805135904        0.3845911475
 F          1.9512927995        2.5328733312        0.7651754813
 C          0.3469536250        0.8298328255        0.4364111924
 F         -0.6096493120        1.6528657073        0.9004009524
 Cl        -4.9446460228        0.3491377705       -1.6156070657
 H         -4.0353975171       -0.8069867405        2.1783700533
 H         -3.5467716727       -2.1271304724        1.2950722315
 H         -4.0424538294       -0.7433722001        0.5149856177
 H         -1.5932681389       -0.9556166702        2.2053964737
 H         -2.1479119782        0.5042670163        1.4077838666
 H         -1.8894448278       -0.5736555852       -0.8256543901
 H         -1.3560134365       -2.0555934663       -0.0604238538
          22
        -51.84883532
 N         -3.2415213181       -0.5927176896       -0.7333364882
 C         -3.1518287295        0.7601358840       -0.1121875778
 C         -2.2608492136        0.7830140172        1.1295147804
 C         -0.8234721738        0.5691439413        0.8054164285
 C         -0.1924475249       -0.6233038135        1.1362011342
 F         -0.8909735103       -1.6251745421        1.6978182329
 C          1.1513082549       -0.8070302175        0.8425429494
 F          1.7516066634       -1.9667901520        1.1494192555
 C          1.8655599820        0.1949616163        0.2047988996
 F          3.1625890757        0.0144099755       -0.0845515490
 C          1.2343125538        1.3772363089       -0.1481781368
 F          1.9197337200        2.3399846269       -0.7829003662
 C         -0.1089234628        1.5611947535        0.1463916570
 F         -0.7256788006        2.6907209188       -0.2419447049
 Cl        -0.1254714948       -1.8808733909       -2.0017764179
 H         -3.8550273714       -0.5920375504       -1.5565428663
 H         -3.6051919111       -1.2787701871       -0.0622788072
 H         -2.3105628392       -0.9217082821       -1.0359396107
 H         -4.1643249969        1.1042274013        0.1380934185
 H         -2.7594056000        1.4724991445       -0.8498657104
 H         -2.5851288504        0.0120128183        1.8386538306
 H         -2.3567579873        1.7425044625        1.6532458234
          22
        -51.84956158
 N         -3.1903491752       -0.6465710719       -0.8966786808
 C         -3.2111671971        0.5367695185        0.0106206030
 C         -2.3169969729        0.3565169945        1.2375333873
 C         -0.8695497313        0.3107920439        0.8899858775
 C         -0.1283867341       -0.8458552702        1.0974478153
 F         -0.7215405973       -1.9539516516        1.5740216012
 C          1.2223503410       -0.8763360231        0.7813769904
 F          1.9284546906       -2.0017259357        0.9664175086
 C          1.8360676065        0.2466757676        0.2496009863
 F          3.1396766364        0.2133033410       -0.0637172389
 C          1.0981147795        1.3986019288        0.0278155586
 F          1.6870345366        2.4804120640       -0.5036043981
 C         -0.2522224145        1.4294941289        0.3451605324
 F         -0.9672596497        2.5396941875        0.0937246803
 Cl         0.0513254483       -1.2937300299       -2.3287412880
 H         -3.8015919606       -0.5111388538       -1.7102834237
 H         -3.4962041150       -1.4919404180       -0.4018036213
 H         -2.2350710149       -0.8210921509       -1.2479996266
 H         -4.2471774467        0.7326600511        0.3180678959
 H         -2.8833771748        1.4241966725       -0.5470204505
 H         -2.5863199960       -0.5667404270        1.7647306416
 H         -2.4745308297        1.1745668215        1.9514484106
          22
        -51.84978541
 N         -3.1772872252       -0.6010065371       -0.9380563705
 C         -3.2190552431        0.5022078897        0.0644165449
 C         -2.3178338573        0.2397433077        1.2711243540
 C         -0.8716615430        0.2190821403        0.9160374888
 C         -0.1301577143       -0.9493538255        1.0404772029
 F         -0.7227245559       -2.0883484616        1.4387124731
 C          1.2210255400       -0.9570388610        0.7250121358
 F          1.9286176180       -2.0912084241        0.8365541928
 C          1.8350619653        0.2015990587        0.2765181967
 F          3.1393869159        0.1920423918       -0.0352046633
 C          1.0968104717        1.3662870752        0.1372329163
 F          1.6861900227        2.4838738744       -0.3135542644
 C         -0.2541568627        1.3740223564        0.4534247563
 F         -0.9695280664        2.4984853884        0.2785978102
 Cl         0.0541020674       -0.9650501856       -2.4711358248
 H         -3.8081016100       -0.4197312613       -1.7275512539
 H         -3.4449493694       -1.4950743296       -0.5110237867
 H         -2.2236468250       -0.7113781441       -1.3187922882
 H         -4.2576845616        0.6506124957        0.3892300292
 H         -2.9124948381        1.4394338885       -0.4191078523
 H         -2.5834048863       -0.7175679466        1.7357194288
 H         -2.4731832357        1.0066886241        2.0401609890
          22
        -51.84987601
 N         -3.1481141815       -0.6166286115       -0.9501725101
 C         -3.2149000463        0.5113477971        0.0230770610
 C         -2.3327927719        0.2841015102        1.2504623824
 C         -0.8828429625        0.2375417486        0.9148492090
 C         -0.1678552417       -0.9474519072        1.0363139531
 F         -0.7904160015       -2.0774405599        1.4137939869
 C          1.1858969715       -0.9809567859        0.7338557213
 F          1.8685855443       -2.1308446676        0.8408599794
 C          1.8279673706        0.1678930457        0.2996615189
 F          3.1336601496        0.1324034063       -0.0040316714
 C          1.1153813583        1.3484583266        0.1601926806
 F          1.7321932746        2.4560437907       -0.2786188253
 C         -0.2383827439        1.3816462565        0.4624390246
 F         -0.9305475790        2.5200988102        0.2847318551
 Cl         0.0896456556       -0.9124515313       -2.4878503554
 H         -3.7778057843       -0.4680220944       -1.7473991953
 H         -3.4017626502       -1.5033581075       -0.4998417235
 H         -2.1906645674       -0.7202149071       -1.3233177102
 H         -4.2597361009        0.6599442523        0.3271122378
 H         -2.9061955941        1.4383669137       -0.4784188347
 H         -2.6127065101       -0.6545434048        1.7438881781
 H         -2.4915769829        1.0787366007        1.9901524385
