22

N          1.23478       -0.32249       -0.02568
C          2.69678       -0.24380       -0.01237
C          3.15563        1.11037        0.52624
C          4.65496        1.23345        0.57331
C          5.37319        1.72441       -0.52165
F          4.71620        2.04494       -1.64490
C          6.75741        1.86725       -0.46900
F          7.42233        2.33429       -1.53426
C          7.44675        1.50934        0.68176
F          8.77958        1.63662        0.73177
C          6.75605        0.99904        1.77095
F          7.41932        0.62834        2.87502
C          5.37179        0.85825        1.71272
F          4.71417        0.33632        2.75756
Cl        -0.57174        1.67326        0.77956
H          0.79305       -1.17009       -0.38266
H          0.77505        0.48745       -0.50220
H          0.79395       -0.10825        0.89873
H          3.03398       -0.40587       -1.04079
H          3.05401       -1.07021        0.60987
H          2.75341        1.27223        1.53439
H          2.74953        1.92118       -0.09135
