19
 xtb: 6.5.1 (fef0646)
N           -1.14804687258517       -2.03485527381586       -0.26388951585502
C           -0.05980852912552       -1.90679189904999        0.75205916557959
C            0.80545845495540       -0.71853247745501        0.47528358829423
C            1.97506015790763       -0.84326518850952       -0.26252450066569
C            2.74014262370116        0.26732761235075       -0.55896615975369
C            2.34037164302426        1.51819685475485       -0.12765052041556
C            1.17380623074442        1.65656633848377        0.59997973742000
C            0.40989535057397        0.54586695858847        0.89742043549442
Cl          -2.85844945659918        0.80044477811521       -0.51476716114784
H           -0.68144660476164       -2.25660734960708       -1.18994131604445
H           -1.68970474748103       -1.23373139323237       -0.34688781905749
H           -1.73242904933119       -2.88546608761453       -0.05663462059985
H            0.56907944773174       -2.80473122682779        0.84392837532862
H           -0.52063881163477       -1.79263697189448        1.76183649415180
H            2.23603732506691       -1.81191463931575       -0.65024115393784
H            3.60555047616463        0.16259861932896       -1.18663106564625
H            2.93352950724843        2.38354579193006       -0.36773796386513
H            0.89254562269433        2.62893048177366        0.98500572809467
H           -0.47240277807896        0.64995603730153        1.51753653227242
