 xtb: 6.5.1 (fef0646)
          02032321493D

 15 14  0     0  0            999 V2000
   -2.2084    0.7975   -0.1288 N   0  0  0  0  0  0  0  0  0  0  0  0
   -1.6666   -0.5015    0.3701 C   0  0  0  0  0  0  0  0  0  0  0  0
   -0.2106   -0.4088    0.7900 C   0  0  0  0  0  0  0  0  0  0  0  0
    0.8545   -0.0348   -0.5983 S   0  0  0  0  0  0  0  0  0  0  0  0
    2.4066    0.0373    0.2458 C   0  0  0  0  0  0  0  0  0  0  0  0
   -2.1521    1.5157    0.5986 H   0  0  0  0  0  0  0  0  0  0  0  0
   -3.1874    0.7077   -0.4155 H   0  0  0  0  0  0  0  0  0  0  0  0
   -1.6681    1.1228   -0.9362 H   0  0  0  0  0  0  0  0  0  0  0  0
   -1.7708   -1.2586   -0.4175 H   0  0  0  0  0  0  0  0  0  0  0  0
   -2.2848   -0.8473    1.2091 H   0  0  0  0  0  0  0  0  0  0  0  0
    0.1305   -1.3470    1.2349 H   0  0  0  0  0  0  0  0  0  0  0  0
   -0.0819    0.3713    1.5420 H   0  0  0  0  0  0  0  0  0  0  0  0
    2.3920    0.8167    1.0038 H   0  0  0  0  0  0  0  0  0  0  0  0
    3.1945    0.2632   -0.4689 H   0  0  0  0  0  0  0  0  0  0  0  0
    2.6284   -0.9176    0.7165 H   0  0  0  0  0  0  0  0  0  0  0  0
  1  2  1  0  0  0  0
  2  3  1  0  0  0  0
  3  4  1  0  0  0  0
  4  5  1  0  0  0  0
  1  6  1  0  0  0  0
  1  7  1  0  0  0  0
  1  8  1  0  0  0  0
  2  9  1  0  0  0  0
  2 10  1  0  0  0  0
  3 11  1  0  0  0  0
  3 12  1  0  0  0  0
  5 13  1  0  0  0  0
  5 14  1  0  0  0  0
  5 15  1  0  0  0  0
M  CHG  1   1   1
M  END
