46
0.309
N           -7.42244   0.24000   1.77485
C           -7.71183  -0.72833   0.68162
C           -7.09234  -0.29111  -0.64342
C           -5.63485  -0.01746  -0.52878
C           -5.08508   1.19826  -0.27247
C           -3.66799   1.18043  -0.19102
C           -3.12303  -0.05815  -0.38455
C           -1.71497  -0.36789  -0.35520
C           -1.16860  -1.60612  -0.55333
C            0.25104  -1.64689  -0.47400
C            1.02117  -2.90701  -0.66309
C            0.80795  -0.41291  -0.20746
C            2.20539  -0.08544  -0.05893
C            2.68075   1.17269   0.20781
C            4.08902   1.25064   0.31010
C            4.73292   0.05570   0.12439
C            6.16736  -0.11459   0.18098
C            6.88871  -1.27384  -0.00110
C            6.29975  -2.60804  -0.30057
C            8.29858  -1.07190   0.12722
C            8.64815   0.20585   0.39972
S            7.25563   1.20962   0.50875
S            3.55034  -1.18539  -0.18277
S           -0.45035   0.78339  -0.06074
S           -4.39209  -1.21833  -0.67343
Cl          -7.72561   3.47207   0.47889
H           -6.41560   0.24253   2.00207
H           -7.94059   0.02648   2.64252
H           -7.66372   1.20494   1.48126
H           -8.79650  -0.85247   0.57234
H           -7.32584  -1.71526   0.96452
H           -7.59419   0.61406  -1.00511
H           -7.25567  -1.05126  -1.41719
H           -5.68073   2.08754  -0.12756
H           -3.06978   2.05638   0.00738
H           -1.76879  -2.47932  -0.75408
H            0.35828  -3.74783  -0.87379
H            1.59457  -3.14823   0.23260
H            1.71843  -2.81308  -1.49671
H            2.02930   2.02484   0.32791
H            4.61868   2.16809   0.51608
H            7.07495  -3.36790  -0.40665
H            5.72895  -2.57951  -1.22995
H            5.62846  -2.92330   0.49958
H            9.01280  -1.87424   0.01452
H            9.65234   0.56367   0.53298
