16
0.0
N            0.20805  -1.47886   0.84145
C            1.09393  -1.54772  -0.35600
C            1.42014  -0.15995  -0.90592
C            2.17793   0.68486   0.06222
C            1.81233   1.90574   0.40141
Cl          -2.61096   0.38084  -0.08338
H           -0.66588  -0.97327   0.61384
H            0.66464  -0.96384   1.60704
H           -0.04688  -2.41267   1.19435
H            0.61536  -2.16061  -1.13009
H            2.02220  -2.07072  -0.09781
H            0.48674   0.34735  -1.17601
H            1.98786  -0.23924  -1.84219
H            3.06866   0.25703   0.49456
H            0.93062   2.35576  -0.01215
H            2.37522   2.49399   1.10113
