16
 xtb: 6.5.1 (fef0646)
N            0.25357960320039       -1.53344169780165        0.84377752758866
C            1.12009372748782       -1.55858118982891       -0.36885632482139
C            1.42772082288998       -0.15421887007905       -0.88499983835021
C            2.16880648511426        0.67861016608646        0.10689988032780
C            1.87527104209769        1.94561175287882        0.35715121691042
Cl          -2.70645319712446        0.40280958229431       -0.08874713754370
H           -0.65499342949772       -0.98829188643942        0.62186753877233
H            0.67890414788727       -0.98410681910381        1.61034179205435
H           -0.03141868109618       -2.43077820387157        1.18842371869988
H            0.62149960029726       -2.15940593884819       -1.13633696557953
H            2.03206231040254       -2.07360307767656       -0.10909047330680
H            0.48789466776371        0.34768962515028       -1.16904430857293
H            1.99178415102626       -0.22901095922939       -1.83599349574578
H            3.04529790848367        0.24071888131421        0.53596073862407
H            0.97100681771359        2.38412217592746       -0.05373262846260
H            2.39084471138018        2.50116662362835        1.09407816617095
