 xtb: 6.5.1 (fef0646)
          01242317083D

 16 14  0     0  0            999 V2000
    0.2080   -1.4789    0.8415 N   0  0  0  0  0  0  0  0  0  0  0  0
    1.0939   -1.5477   -0.3560 C   0  0  0  0  0  0  0  0  0  0  0  0
    1.4201   -0.1600   -0.9059 C   0  0  0  0  0  0  0  0  0  0  0  0
    2.1779    0.6848    0.0622 C   0  0  0  0  0  0  0  0  0  0  0  0
    1.8123    1.9057    0.4014 C   0  0  0  0  0  0  0  0  0  0  0  0
   -2.6110    0.3809   -0.0834 Cl  0  0  0  0  0  0  0  0  0  0  0  0
   -0.6659   -0.9733    0.6138 H   0  0  0  0  0  0  0  0  0  0  0  0
    0.6646   -0.9638    1.6070 H   0  0  0  0  0  0  0  0  0  0  0  0
   -0.0469   -2.4127    1.1944 H   0  0  0  0  0  0  0  0  0  0  0  0
    0.6153   -2.1606   -1.1301 H   0  0  0  0  0  0  0  0  0  0  0  0
    2.0222   -2.0707   -0.0978 H   0  0  0  0  0  0  0  0  0  0  0  0
    0.4867    0.3473   -1.1760 H   0  0  0  0  0  0  0  0  0  0  0  0
    1.9879   -0.2393   -1.8422 H   0  0  0  0  0  0  0  0  0  0  0  0
    3.0687    0.2570    0.4945 H   0  0  0  0  0  0  0  0  0  0  0  0
    0.9306    2.3558   -0.0122 H   0  0  0  0  0  0  0  0  0  0  0  0
    2.3752    2.4940    1.1011 H   0  0  0  0  0  0  0  0  0  0  0  0
  1  2  1  0  0  0  0
  2  3  1  0  0  0  0
  3  4  1  0  0  0  0
  4  5  2  0  0  0  0
  1  7  1  0  0  0  0
  1  8  1  0  0  0  0
  1  9  1  0  0  0  0
  2 10  1  0  0  0  0
  2 11  1  0  0  0  0
  3 12  1  0  0  0  0
  3 13  1  0  0  0  0
  4 14  1  0  0  0  0
  5 15  1  0  0  0  0
  5 16  1  0  0  0  0
M  END
