16

O          3.25583       -1.45463       -1.21674
C          2.54732       -0.60885       -0.32200
C          3.02627       -0.90098        1.09440
C          4.49300       -0.57643        1.30429
N          4.72248        0.89208        1.18900
Cl         1.74132        2.53791        1.08637
H          2.74768       -1.43860       -2.05305
H          1.47573       -0.81118       -0.40765
H          2.73763        0.41710       -0.64117
H          2.88330       -1.96771        1.29810
H          2.41927       -0.36043        1.82780
H          5.15074       -1.06521        0.57248
H          4.80973       -0.85879        2.30644
H          4.57926        1.21967        0.22829
H          5.63035        1.19217        1.51453
H          3.97590        1.43302        1.71040
