24
1.467
N           -1.60295  -0.88288  -0.73008
C           -0.42318  -0.71499   0.16886
C            0.69296  -1.70210  -0.15028
C            1.88197  -1.61848   0.81171
C            2.59817  -0.26477   0.81545
C            3.22248   0.10593  -0.53083
C            3.97803   1.42607  -0.48332
Cl          -4.07279   1.47967   0.11243
H           -1.99950  -1.82852  -0.64496
H           -1.33700  -0.74666  -1.71474
H           -2.35393  -0.20475  -0.50929
H           -0.73434  -0.83468   1.21358
H           -0.04974   0.31259   0.09304
H            1.03200  -1.54676  -1.18063
H            0.27900  -2.71824  -0.14410
H            2.60879  -2.40404   0.56828
H            1.53471  -1.85386   1.82595
H            3.38267  -0.26119   1.58344
H            1.90333   0.52476   1.12444
H            2.44108   0.15228  -1.29967
H            3.89199  -0.70169  -0.85442
H            4.78719   1.39248   0.24859
H            3.31929   2.24771  -0.19603
H            4.41982   1.68212  -1.44897
