 xtb: 6.5.1 (fef0646)
          01242317103D

 24 22  0     0  0            999 V2000
   -1.6030   -0.8829   -0.7301 N   0  0  0  0  0  0  0  0  0  0  0  0
   -0.4232   -0.7150    0.1689 C   0  0  0  0  0  0  0  0  0  0  0  0
    0.6930   -1.7021   -0.1503 C   0  0  0  0  0  0  0  0  0  0  0  0
    1.8820   -1.6185    0.8117 C   0  0  0  0  0  0  0  0  0  0  0  0
    2.5982   -0.2648    0.8154 C   0  0  0  0  0  0  0  0  0  0  0  0
    3.2225    0.1059   -0.5308 C   0  0  0  0  0  0  0  0  0  0  0  0
    3.9780    1.4260   -0.4833 C   0  0  0  0  0  0  0  0  0  0  0  0
   -4.0728    1.4797    0.1124 Cl  0  0  0  0  0  0  0  0  0  0  0  0
   -1.9995   -1.8285   -0.6449 H   0  0  0  0  0  0  0  0  0  0  0  0
   -1.3370   -0.7467   -1.7147 H   0  0  0  0  0  0  0  0  0  0  0  0
   -2.3539   -0.2047   -0.5093 H   0  0  0  0  0  0  0  0  0  0  0  0
   -0.7343   -0.8347    1.2136 H   0  0  0  0  0  0  0  0  0  0  0  0
   -0.0497    0.3126    0.0930 H   0  0  0  0  0  0  0  0  0  0  0  0
    1.0320   -1.5468   -1.1806 H   0  0  0  0  0  0  0  0  0  0  0  0
    0.2790   -2.7182   -0.1441 H   0  0  0  0  0  0  0  0  0  0  0  0
    2.6088   -2.4041    0.5683 H   0  0  0  0  0  0  0  0  0  0  0  0
    1.5347   -1.8539    1.8259 H   0  0  0  0  0  0  0  0  0  0  0  0
    3.3827   -0.2612    1.5834 H   0  0  0  0  0  0  0  0  0  0  0  0
    1.9033    0.5248    1.1244 H   0  0  0  0  0  0  0  0  0  0  0  0
    2.4411    0.1523   -1.2997 H   0  0  0  0  0  0  0  0  0  0  0  0
    3.8920   -0.7017   -0.8544 H   0  0  0  0  0  0  0  0  0  0  0  0
    4.7872    1.3925    0.2486 H   0  0  0  0  0  0  0  0  0  0  0  0
    3.3193    2.2477   -0.1960 H   0  0  0  0  0  0  0  0  0  0  0  0
    4.4198    1.6821   -1.4490 H   0  0  0  0  0  0  0  0  0  0  0  0
  1  2  1  0  0  0  0
  2  3  1  0  0  0  0
  3  4  1  0  0  0  0
  4  5  1  0  0  0  0
  5  6  1  0  0  0  0
  6  7  1  0  0  0  0
  1  9  1  0  0  0  0
  1 10  1  0  0  0  0
  1 11  1  0  0  0  0
  2 12  1  0  0  0  0
  2 13  1  0  0  0  0
  3 14  1  0  0  0  0
  3 15  1  0  0  0  0
  4 16  1  0  0  0  0
  4 17  1  0  0  0  0
  5 18  1  0  0  0  0
  5 19  1  0  0  0  0
  6 20  1  0  0  0  0
  6 21  1  0  0  0  0
  7 22  1  0  0  0  0
  7 23  1  0  0  0  0
  7 24  1  0  0  0  0
M  END
