42
 xtb: 6.5.1 (fef0646)
N           -4.17849028959096       -1.04951834571959       -0.85531418348513
C           -3.65133675810331       -0.12913347148182        0.19574635902243
C           -2.76984832953064        0.94766903971574       -0.41872432384896
C           -2.19953022128399        1.92270861293383        0.60988981144685
C           -1.37805168372529        3.04955940875589       -0.02252770699028
C           -0.14415667052063        2.57137740013079       -0.79378961784090
C            0.88140335582804        1.84807066034819        0.07940093773567
C            2.14267263683176        1.45250297492686       -0.68826271282413
C            3.18250415523827        0.75615370433477        0.18919695926387
C            4.44882851035374        0.37361729455683       -0.57661097050397
C            5.49530061611671       -0.31192030300021        0.30176952353926
C            6.76438100308663       -0.68942226119477       -0.46359208219837
C            7.80365037102140       -1.36752442274002        0.41688597636848
Cl          -6.40611532351417       -3.64432507786756        0.89144840261284
H           -4.81594465524218       -1.81205498379963       -0.36748695146565
H           -3.46311360046379       -1.57400426567733       -1.30316753711679
H           -4.78892911721512       -0.59139262124449       -1.49783794292136
H           -3.09617202335326       -0.70522156681940        0.96988983467273
H           -4.48974995508706        0.32316478510876        0.76982572650397
H           -3.36424444590722        1.46957795457701       -1.16831719072478
H           -1.97829901357209        0.43692875794671       -0.97149031776722
H           -1.59733131191902        1.35419791451751        1.33163532014721
H           -3.03230894424973        2.32429116991942        1.19744731227065
H           -1.07768911179803        3.73863077814913        0.74785070270692
H           -2.04249808717623        3.60587410123870       -0.69797113721565
H            0.32784815797590        3.41090217000577       -1.28733584879026
H           -0.45219501942024        1.89483421928623       -1.61834604732185
H            0.43363137709029        0.94987816563743        0.53223185631303
H            1.14675279967598        2.48809711788467        0.92611369573986
H            2.58306687130505        2.34238112453290       -1.14772367541234
H            1.87259512194105        0.80008233563642       -1.52793225810831
H            2.74173288821947       -0.13777375083959        0.64736684650656
H            3.44378374006963        1.40695805165642        1.03405806652634
H            4.88284280817089        1.26971507077263       -1.03673363606605
H            4.18602663840033       -0.27878670194384       -1.41687393918755
H            5.06051716352347       -1.20739626414687        0.76120723072227
H            5.75358873236492        0.34202496509918        1.14409417491122
H            7.18873321122912        0.21155950209486       -0.92669174005847
H            6.49751971127396       -1.34050981289827       -1.30653600068153
H            7.40915796532947       -2.28389991768774        0.85760528623316
H            8.10677277246048       -0.71835326910155        1.23971281014906
H            8.70387489711680       -1.63186333042435       -0.14216007229484
