 xtb: 6.5.1 (fef0646)
          01242310103D

 42 40  0     0  0            999 V2000
    0.7111    1.5265    1.1627 N   0  0  0  0  0  0  0  0  0  0  0  0
    2.1379    1.9400    1.2449 C   0  0  0  0  0  0  0  0  0  0  0  0
    3.0318    1.2721    0.1959 C   0  0  0  0  0  0  0  0  0  0  0  0
    3.5620   -0.1137    0.5868 C   0  0  0  0  0  0  0  0  0  0  0  0
    2.5172   -1.2324    0.6370 C   0  0  0  0  0  0  0  0  0  0  0  0
    1.8184   -1.4775   -0.7017 C   0  0  0  0  0  0  0  0  0  0  0  0
    0.9072   -2.7080   -0.6987 C   0  0  0  0  0  0  0  0  0  0  0  0
   -0.3113   -2.5879    0.2208 C   0  0  0  0  0  0  0  0  0  0  0  0
   -1.3170   -1.5308   -0.2344 C   0  0  0  0  0  0  0  0  0  0  0  0
   -2.5602   -1.4725    0.6537 C   0  0  0  0  0  0  0  0  0  0  0  0
   -3.6120   -0.4700    0.1705 C   0  0  0  0  0  0  0  0  0  0  0  0
   -3.1564    0.9915    0.2143 C   0  0  0  0  0  0  0  0  0  0  0  0
   -2.8806    1.4932    1.6228 C   0  0  0  0  0  0  0  0  0  0  0  0
   -0.3171    1.5578   -2.1501 Cl  0  0  0  0  0  0  0  0  0  0  0  0
    0.5772    0.5431    1.4395 H   0  0  0  0  0  0  0  0  0  0  0  0
    0.3560    1.6206    0.1929 H   0  0  0  0  0  0  0  0  0  0  0  0
    0.1064    2.0995    1.7750 H   0  0  0  0  0  0  0  0  0  0  0  0
    2.5288    1.7448    2.2505 H   0  0  0  0  0  0  0  0  0  0  0  0
    2.1830    3.0313    1.1263 H   0  0  0  0  0  0  0  0  0  0  0  0
    3.8880    1.9294   -0.0142 H   0  0  0  0  0  0  0  0  0  0  0  0
    2.4910    1.2115   -0.7553 H   0  0  0  0  0  0  0  0  0  0  0  0
    4.0702   -0.0373    1.5570 H   0  0  0  0  0  0  0  0  0  0  0  0
    4.3480   -0.4110   -0.1210 H   0  0  0  0  0  0  0  0  0  0  0  0
    1.7797   -1.0223    1.4178 H   0  0  0  0  0  0  0  0  0  0  0  0
    2.9960   -2.1671    0.9593 H   0  0  0  0  0  0  0  0  0  0  0  0
    2.5824   -1.5837   -1.4835 H   0  0  0  0  0  0  0  0  0  0  0  0
    1.2426   -0.5916   -0.9908 H   0  0  0  0  0  0  0  0  0  0  0  0
    1.5016   -3.5865   -0.4144 H   0  0  0  0  0  0  0  0  0  0  0  0
    0.5597   -2.9154   -1.7195 H   0  0  0  0  0  0  0  0  0  0  0  0
    0.0117   -2.3703    1.2458 H   0  0  0  0  0  0  0  0  0  0  0  0
   -0.8235   -3.5571    0.2879 H   0  0  0  0  0  0  0  0  0  0  0  0
   -1.6159   -1.7306   -1.2711 H   0  0  0  0  0  0  0  0  0  0  0  0
   -0.8349   -0.5478   -0.2626 H   0  0  0  0  0  0  0  0  0  0  0  0
   -2.2637   -1.2388    1.6831 H   0  0  0  0  0  0  0  0  0  0  0  0
   -3.0019   -2.4763    0.7107 H   0  0  0  0  0  0  0  0  0  0  0  0
   -4.5251   -0.5734    0.7718 H   0  0  0  0  0  0  0  0  0  0  0  0
   -3.9100   -0.7355   -0.8525 H   0  0  0  0  0  0  0  0  0  0  0  0
   -3.9181    1.6284   -0.2578 H   0  0  0  0  0  0  0  0  0  0  0  0
   -2.2633    1.1177   -0.4106 H   0  0  0  0  0  0  0  0  0  0  0  0
   -2.0746    0.9316    2.0992 H   0  0  0  0  0  0  0  0  0  0  0  0
   -3.7629    1.3897    2.2584 H   0  0  0  0  0  0  0  0  0  0  0  0
   -2.5914    2.5474    1.6333 H   0  0  0  0  0  0  0  0  0  0  0  0
  1  2  1  0  0  0  0
  2  3  1  0  0  0  0
  3  4  1  0  0  0  0
  4  5  1  0  0  0  0
  5  6  1  0  0  0  0
  6  7  1  0  0  0  0
  7  8  1  0  0  0  0
  8  9  1  0  0  0  0
  9 10  1  0  0  0  0
 10 11  1  0  0  0  0
 11 12  1  0  0  0  0
 12 13  1  0  0  0  0
  1 15  1  0  0  0  0
  1 16  1  0  0  0  0
  1 17  1  0  0  0  0
  2 18  1  0  0  0  0
  2 19  1  0  0  0  0
  3 20  1  0  0  0  0
  3 21  1  0  0  0  0
  4 22  1  0  0  0  0
  4 23  1  0  0  0  0
  5 24  1  0  0  0  0
  5 25  1  0  0  0  0
  6 26  1  0  0  0  0
  6 27  1  0  0  0  0
  7 28  1  0  0  0  0
  7 29  1  0  0  0  0
  8 30  1  0  0  0  0
  8 31  1  0  0  0  0
  9 32  1  0  0  0  0
  9 33  1  0  0  0  0
 10 34  1  0  0  0  0
 10 35  1  0  0  0  0
 11 36  1  0  0  0  0
 11 37  1  0  0  0  0
 12 38  1  0  0  0  0
 12 39  1  0  0  0  0
 13 40  1  0  0  0  0
 13 41  1  0  0  0  0
 13 42  1  0  0  0  0
M  END
