23
1.529
N           -3.00578  -1.36416   0.78213
C           -2.06247  -2.34358   0.16357
C           -0.68299  -1.81389  -0.02627
C           -0.23786  -0.68549   0.51936
C            1.10976  -0.13790   0.35130
C            1.92911  -0.49979  -0.71765
C            3.19129   0.03934  -0.85395
C            3.65965   0.95171   0.07076
C            2.86019   1.32691   1.13237
C            1.59770   0.78991   1.27084
Cl          -2.63743   1.59091  -1.07206
H           -3.97238  -1.71868   0.80475
H           -3.00472  -0.48180   0.24743
H           -2.73162  -1.14227   1.75215
H           -2.46403  -2.66385  -0.80607
H           -2.02500  -3.25045   0.77985
H           -0.00471  -2.40185  -0.62163
H           -0.90536  -0.11671   1.14160
H            1.56468  -1.19625  -1.45306
H            3.81294  -0.24999  -1.68608
H            4.64657   1.37218  -0.03726
H            3.22373   2.04089   1.85399
H            0.97510   1.08212   2.09977
