23
 xtb: 6.5.1 (fef0646)
N           -3.00661756072002       -1.30185860266062        0.72698208363378
C           -2.06866017620570       -2.31489304601544        0.15361974257614
C           -0.67051179543397       -1.81763765993116        0.00830518843178
C           -0.25443998382664       -0.64365319055853        0.48167278376293
C            1.10700982621006       -0.12011833615230        0.33854162475726
C            1.92553955159909       -0.48646403150082       -0.72851316067035
C            3.19470235888776        0.03930653983092       -0.85616075146589
C            3.67040152201792        0.93727002211936        0.07886703822617
C            2.87254070437904        1.31207088073915        1.14200148370184
C            1.60142396105162        0.79259402866003        1.26909271311886
Cl          -2.64470380066167        1.49622680675741       -1.01406434530652
H           -3.97513978302805       -1.69503137619526        0.78211480647678
H           -2.99394454431544       -0.46328792669168        0.22951809349981
H           -2.73904197924230       -1.12555368083510        1.73929413679181
H           -2.45825585630827       -2.65450941489192       -0.81257796922565
H           -2.03894024193787       -3.24152723461002        0.77853158124259
H            0.00972558985605       -2.42089691384651       -0.58199175116700
H           -0.92088878883991       -0.08462409742452        1.10045781583838
H            1.56021534805924       -1.18857739799607       -1.45824138326388
H            3.81365778262747       -0.24948907474455       -1.68711978031180
H            4.65123597790204        1.36493460327959       -0.03277974120754
H            3.22960572316123        2.03265789167103        1.85952882017712
H            0.97615496695847        1.08252107316571        2.09937131412643
