 xtb: 6.5.1 (fef0646)
          01242316563D

 23 22  0     0  0            999 V2000
   -3.0058   -1.3641    0.7821 N   0  0  0  0  0  0  0  0  0  0  0  0
   -2.0625   -2.3436    0.1636 C   0  0  0  0  0  0  0  0  0  0  0  0
   -0.6830   -1.8139   -0.0263 C   0  0  0  0  0  0  0  0  0  0  0  0
   -0.2379   -0.6855    0.5194 C   0  0  0  0  0  0  0  0  0  0  0  0
    1.1098   -0.1379    0.3513 C   0  0  0  0  0  0  0  0  0  0  0  0
    1.9291   -0.4998   -0.7177 C   0  0  0  0  0  0  0  0  0  0  0  0
    3.1913    0.0393   -0.8540 C   0  0  0  0  0  0  0  0  0  0  0  0
    3.6597    0.9517    0.0707 C   0  0  0  0  0  0  0  0  0  0  0  0
    2.8602    1.3269    1.1324 C   0  0  0  0  0  0  0  0  0  0  0  0
    1.5977    0.7899    1.2708 C   0  0  0  0  0  0  0  0  0  0  0  0
   -2.6374    1.5909   -1.0721 Cl  0  0  0  0  0  0  0  0  0  0  0  0
   -3.9724   -1.7187    0.8048 H   0  0  0  0  0  0  0  0  0  0  0  0
   -3.0047   -0.4818    0.2474 H   0  0  0  0  0  0  0  0  0  0  0  0
   -2.7316   -1.1423    1.7522 H   0  0  0  0  0  0  0  0  0  0  0  0
   -2.4640   -2.6638   -0.8061 H   0  0  0  0  0  0  0  0  0  0  0  0
   -2.0250   -3.2504    0.7799 H   0  0  0  0  0  0  0  0  0  0  0  0
   -0.0047   -2.4019   -0.6216 H   0  0  0  0  0  0  0  0  0  0  0  0
   -0.9054   -0.1167    1.1416 H   0  0  0  0  0  0  0  0  0  0  0  0
    1.5647   -1.1963   -1.4531 H   0  0  0  0  0  0  0  0  0  0  0  0
    3.8129   -0.2500   -1.6861 H   0  0  0  0  0  0  0  0  0  0  0  0
    4.6466    1.3722   -0.0373 H   0  0  0  0  0  0  0  0  0  0  0  0
    3.2237    2.0409    1.8540 H   0  0  0  0  0  0  0  0  0  0  0  0
    0.9751    1.0821    2.0998 H   0  0  0  0  0  0  0  0  0  0  0  0
  1  2  1  0  0  0  0
  2  3  1  0  0  0  0
  3  4  2  0  0  0  0
  4  5  1  0  0  0  0
  5  6  4  0  0  0  0
  6  7  4  0  0  0  0
  7  8  4  0  0  0  0
  8  9  4  0  0  0  0
  5 10  4  0  0  0  0
  9 10  4  0  0  0  0
  1 12  1  0  0  0  0
  1 13  1  0  0  0  0
  1 14  1  0  0  0  0
  2 15  1  0  0  0  0
  2 16  1  0  0  0  0
  3 17  1  0  0  0  0
  4 18  1  0  0  0  0
  6 19  1  0  0  0  0
  7 20  1  0  0  0  0
  8 21  1  0  0  0  0
  9 22  1  0  0  0  0
 10 23  1  0  0  0  0
M  END
