 xtb: 6.5.1 (fef0646)
          01242317093D

 18 16  0     0  0            999 V2000
   -2.9764   -2.0729   -0.1221 N   0  0  0  0  0  0  0  0  0  0  0  0
   -1.5334   -1.7974    0.1355 C   0  0  0  0  0  0  0  0  0  0  0  0
   -0.8792   -1.0390   -1.0132 C   0  0  0  0  0  0  0  0  0  0  0  0
    0.6142   -0.7673   -0.7971 C   0  0  0  0  0  0  0  0  0  0  0  0
    0.9020    0.1783    0.3550 C   0  0  0  0  0  0  0  0  0  0  0  0
    2.7813    0.5732    0.5630 Br  0  0  0  0  0  0  0  0  0  0  0  0
   -4.4555    1.0638   -0.6845 Cl  0  0  0  0  0  0  0  0  0  0  0  0
   -3.4869   -1.1873   -0.2770 H   0  0  0  0  0  0  0  0  0  0  0  0
   -3.4236   -2.5636    0.6635 H   0  0  0  0  0  0  0  0  0  0  0  0
   -3.0960   -2.6476   -0.9660 H   0  0  0  0  0  0  0  0  0  0  0  0
   -1.0006   -2.7394    0.3096 H   0  0  0  0  0  0  0  0  0  0  0  0
   -1.4319   -1.2282    1.0663 H   0  0  0  0  0  0  0  0  0  0  0  0
   -1.4057   -0.0906   -1.1679 H   0  0  0  0  0  0  0  0  0  0  0  0
   -1.0284   -1.6031   -1.9416 H   0  0  0  0  0  0  0  0  0  0  0  0
    1.0591   -0.3528   -1.7110 H   0  0  0  0  0  0  0  0  0  0  0  0
    1.1417   -1.7139   -0.6280 H   0  0  0  0  0  0  0  0  0  0  0  0
    0.5599   -0.2351    1.3051 H   0  0  0  0  0  0  0  0  0  0  0  0
    0.3859    1.1304    0.2175 H   0  0  0  0  0  0  0  0  0  0  0  0
  1  2  1  0  0  0  0
  2  3  1  0  0  0  0
  3  4  1  0  0  0  0
  4  5  1  0  0  0  0
  5  6  1  0  0  0  0
  1  8  1  0  0  0  0
  1  9  1  0  0  0  0
  1 10  1  0  0  0  0
  2 11  1  0  0  0  0
  2 12  1  0  0  0  0
  3 13  1  0  0  0  0
  3 14  1  0  0  0  0
  4 15  1  0  0  0  0
  4 16  1  0  0  0  0
  5 17  1  0  0  0  0
  5 18  1  0  0  0  0
M  END
