 xtb: 6.5.1 (fef0646)
          01232313483D

 14 12  0     0  0            999 V2000
    1.0932    0.0024   -0.3656 N   0  0  0  0  0  0  0  0  0  0  0  0
    2.5287   -0.1320   -0.1244 C   0  0  0  0  0  0  0  0  0  0  0  0
    3.0097    1.0162    0.7673 C   0  0  0  0  0  0  0  0  0  0  0  0
    4.4263    0.9000    1.0437 C   0  0  0  0  0  0  0  0  0  0  0  0
    5.6002    0.7897    1.2466 C   0  0  0  0  0  0  0  0  0  0  0  0
   -0.3410    0.1492    2.1934 Cl  0  0  0  0  0  0  0  0  0  0  0  0
    0.7331   -0.7840   -0.8943 H   0  0  0  0  0  0  0  0  0  0  0  0
    0.8899    0.8580   -0.8728 H   0  0  0  0  0  0  0  0  0  0  0  0
    0.3325    0.0729    0.9999 H   0  0  0  0  0  0  0  0  0  0  0  0
    3.1104   -0.1408   -1.0574 H   0  0  0  0  0  0  0  0  0  0  0  0
    2.6941   -1.0824    0.3881 H   0  0  0  0  0  0  0  0  0  0  0  0
    2.4527    0.9984    1.7064 H   0  0  0  0  0  0  0  0  0  0  0  0
    2.8202    1.9740    0.2737 H   0  0  0  0  0  0  0  0  0  0  0  0
    6.6260    0.7038    1.4474 H   0  0  0  0  0  0  0  0  0  0  0  0
  1  2  1  0  0  0  0
  2  3  1  0  0  0  0
  3  4  1  0  0  0  0
  4  5  3  0  0  0  0
  1  7  1  0  0  0  0
  1  8  1  0  0  0  0
  6  9  1  0  0  0  0
  2 10  1  0  0  0  0
  2 11  1  0  0  0  0
  3 12  1  0  0  0  0
  3 13  1  0  0  0  0
  5 14  1  0  0  0  0
M  END
