37
 xtb: 6.5.1 (fef0646)
N           -3.03425763989378        1.74302715710828        0.81951042416035
C           -3.66338213430222        0.42599262417764        1.10639674074900
C           -3.65057367311662       -0.40886581860789       -0.16554282691578
O           -2.37416826679258       -0.34879251379711       -0.79906973590292
C           -1.32438892751340       -0.91543474145023       -0.09578849165222
C           -0.01698241674018       -0.44569661005084       -0.38821552218197
C            0.19622531142457        0.56892085673912       -1.35645937394896
C            1.44133875104850        1.03823526078475       -1.62718855091878
C            1.09381602604695       -0.97250164028368        0.30871356790743
C            0.91238465881187       -1.97813162589060        1.28703578059569
C           -0.38709015541988       -2.43147163574770        1.54822310556280
C           -1.46793600385536       -1.91507585310822        0.88031637889493
C            2.05136458072525       -2.49096838375549        1.96811473939197
C            3.29932312883041       -2.03066132783772        1.69872750187241
C            3.51663888305251       -1.01423872919466        0.72281118088689
C            4.78922656823161       -0.52000549365864        0.42751585190944
C            4.96072356016682        0.46693194912343       -0.52307932444577
C            3.87787058513634        0.98748175575538       -1.20335428079815
C            2.58386648390724        0.52682787764916       -0.94629611167865
C            2.40179909484892       -0.48560906471843        0.02693478760073
Cl          -4.54174764823893        3.40207805648783       -1.36141080332680
H           -3.48319536508496        2.25879559197192        0.20563972091678
H           -2.03883984229630        1.48946546156064        0.49290598106653
H           -2.84425572739894        2.23838669267246        1.76755069454173
H           -4.68065165820701        0.55325741374530        1.49597072550437
H           -3.13731848460653       -0.16018516566739        1.92102097480335
H           -4.36066632945710        0.01982801305676       -0.87744311815342
H           -3.94337500037480       -1.45732677778786       -0.02673129740556
H           -0.66125415055430        0.95501438650747       -1.88318068882950
H            1.58218752117032        1.80615880842593       -2.36938495298883
H           -0.52739426356954       -3.20372470377876        2.28803447755450
H           -2.44762983570553       -2.30509289369419        1.09259210242322
H            1.90614242248564       -3.25772867386459        2.71087410058922
H            4.15077131106344       -2.42902982677530        2.22518585990641
H            5.64117201177072       -0.91845163326182        0.95285269036384
H            5.95172438074727        0.83491361198705       -0.73830949892297
H            4.02175386900619        1.75631268849279       -1.94521758525023
