  13

 N          0.3953360711       -1.1323752978       -0.3254701026
 C          1.2615632342       -0.2260816924        0.4161762162
 C          1.7746277880        1.0252837984       -0.2556637581
 C          2.7218917416       -0.1133336938        0.0444646629
 Cl        -2.4592278861        0.4766026026        0.2622306949
 H         -1.3170379508       -0.1724826153        0.0250781114
 H          0.5492417009       -2.0780907751        0.0038561420
 H          0.6714382819       -1.1304742492       -1.3006252661
 H          0.9934394989       -0.1528961634        1.4759610779
 H          1.8459970602        1.9408265029        0.3327670235
 H          1.4697192741        1.2021282086       -1.2870364968
 H          3.4558720976        0.0085348024        0.8419994719
 H          3.0851779614       -0.7274311468       -0.7796319900
          13
        -17.93338935
 N          0.7506434922       -1.4465591625       -0.0006242485
 C          1.7661611967       -0.4004688812       -0.0046097697
 C          1.5054293907        0.8769160568        0.7570054383
 C          1.4953509356        0.8838370545       -0.7538573195
 Cl        -2.1760327439        0.1316341313        0.0006958871
 H         -1.0085183252       -0.5153025261        0.0005879350
 H          0.8798621837       -2.0362594384        0.8142962218
 H          0.8787867892       -2.0406084151       -0.8120448300
 H          2.7947647276       -0.7812628389       -0.0134967778
 H          2.3380121782        1.3455539983        1.2833828767
 H          0.5588249104        0.9612803392        1.2907013734
 H          2.3201363664        1.3587808112       -1.2869765199
 H          0.5417486247        0.9699685556       -1.2748347763
