  13

 N          1.1005389871       -0.3401497214       -0.1777053191
 C          2.5415424667       -0.3624230798       -0.1163403968
 C          3.3212391432        0.4671526055       -1.0828903832
 C          3.3657875905       -1.0327289651       -1.1793083312
 Cl        -0.0185085241        2.0461535987        1.1611794357
 H          0.5170511728        0.9559641643        0.5583234614
 H          0.7012748046       -1.1751019451        0.2398561744
 H          0.7821170523       -0.2702565239       -1.1391879391
 H          2.8890244561       -0.4175213723        0.9073178351
 H          4.1930457206        0.9913510556       -0.7270444459
 H          2.7707604772        1.0064257341       -1.8384092620
 H          4.2703694951       -1.5434925402       -0.8890671962
 H          2.8508771578       -1.4994430102       -2.0063936332
