  22

 N         -4.0667627875       -0.1561704056        0.7202208849
 C         -3.2703652154        0.0865235169       -0.5212226413
 C         -1.8479209808       -0.3151228580       -0.3755154180
 C         -0.8347309914        0.5773483628       -0.2705949997
 C          0.5482420816        0.2581044047       -0.1084046913
 C          1.0259792517       -1.0704940064       -0.0473734180
 C          2.3679632497       -1.3311954901        0.1088039299
 C          3.2785822598       -0.2887229495        0.2081330254
 C          2.8365576262        1.0251539835        0.1497172826
 C          1.4975741589        1.2997959565       -0.0053100029
 H         -5.0416742454        0.1406469323        0.6078571244
 H         -3.6617331725        0.3583411693        1.5081260467
 H         -4.0601084353       -1.1523025302        0.9595466285
 H         -3.3286725943        1.1475941201       -0.7888480624
 H         -3.7249640740       -0.4523692434       -1.3614142592
 H         -1.6368470096       -1.3668558258       -0.3083963686
 H         -1.0866812742        1.6235131873       -0.3123814877
 H          0.3366413328       -1.8916190990       -0.1258676435
 H          2.7160014563       -2.3505451333        0.1534746345
 H          4.3286727516       -0.4996850372        0.3298875910
 H          3.5464212393        1.8329750021        0.2252624757
 H          1.1614545176        2.3216295297       -0.0507638740
          22
        -27.94113197
 N         -4.1682835263        0.3708418055       -0.5651939103
 C         -3.2562467688       -0.3027541688        0.4093506652
 C         -1.8509150772        0.1640879079        0.2963170421
 C         -0.7961145856       -0.6757522547        0.1705104989
 C          0.5746107506       -0.2874863649        0.0706713368
 C          1.5698096467       -1.2771996932       -0.0937185906
 C          2.8988609642       -0.9362362846       -0.1905577971
 C          3.2855298155        0.3948183868       -0.1256815653
 C          2.3291900752        1.3871448095        0.0371802663
 C          0.9961910635        1.0600487570        0.1339857907
 H         -4.1804624095        1.3828092736       -0.4062190125
 H         -5.1287869050        0.0221484778       -0.4840186829
 H         -3.8454959308        0.2061563984       -1.5232455506
 H         -3.3000989797       -1.3866417830        0.2535948442
 H         -3.6181392820       -0.1342488009        1.4309985077
 H         -1.6859223103        1.2251683734        0.3129796534
 H         -1.0014061927       -1.7321625401        0.1419806405
 H          1.2764727827       -2.3116118940       -0.1455142200
 H          3.6438350935       -1.7049796850       -0.3173259292
 H          4.3282467396        0.6576499918       -0.2009957741
 H          2.6341768985        2.4198012635        0.0892352257
 H          0.2710185192        1.8429469012        0.2651600667
