  22

 N          1.6692523143        0.4268083583       -1.1308798255
 C          2.6226921269       -0.0427627652       -0.0863492308
 C          3.0899903177        1.1033215299        0.7542061847
 C          4.3719631658        1.4369586099        0.8818714323
 C          4.9001538870        2.5277199535        1.6903391661
 C          4.1786448146        3.1161376343        2.7299856867
 C          4.7219181181        4.1524415704        3.4648275421
 C          5.9923492644        4.6249390172        3.1759107603
 C          6.7225751765        4.0459188745        2.1505916837
 C          6.1845160413        3.0038105502        1.4203421610
 H          1.3404955739       -0.3602304647       -1.7018572298
 H          2.1284076323        1.1113913771       -1.7431882869
 H          0.8591036648        0.8799165753       -0.6917097340
 H          3.4724176387       -0.5279370541       -0.5656049946
 H          2.1134702600       -0.7726629592        0.5463811157
 H          2.3234283950        1.6563495556        1.2758685713
 H          5.1235938265        0.8811999944        0.3354178452
 H          3.1968695767        2.7501939623        2.9860124415
 H          4.1567031383        4.5949770792        4.2719992429
 H          6.4143453296        5.4352903805        3.7518624011
 H          7.7156955987        4.4067587093        1.9258167745
 H          6.7635241387        2.5579195112        0.6244562925
