  18

 N         -2.8421547626        0.5341483373        0.1056357529
 C         -1.7545776350       -0.4073377809       -0.3011470108
 C         -0.3950183294       -0.0146817113        0.2666876665
 C          0.7501756189       -0.9369183998       -0.1530879055
 C          2.0919983440       -0.3869671878        0.3191064159
 O          2.2907566750        0.9349028403       -0.1250029793
 H         -3.7520231304        0.2592047086       -0.2929914528
 H         -2.6436405845        1.4939303870       -0.2113526205
 H         -2.9493055394        0.5601018954        1.1297557283
 H         -1.7041118426       -0.4458769178       -1.3961720152
 H         -2.0153622489       -1.4229174934        0.0208718193
 H         -0.4517650260        0.0272222784        1.3601055327
 H         -0.1520659795        1.0089411907       -0.0418710463
 H          0.7639444640       -1.0263367556       -1.2445258643
 H          0.5869710333       -1.9499165627        0.2315772060
 H          2.9418195430       -1.0113650710        0.0066018186
 H          2.1243895294       -0.3370169928        1.4160576870
 H          2.6480740546        0.9785962069       -1.0348873742
          18
        -21.24419393
 N          1.4193262814       -1.1749900185        0.2346098429
 C          1.6362774829        0.1777475781       -0.3533394442
 C          0.7186301481        1.2510504547        0.2380120874
 C         -0.7460637291        1.2252568974       -0.2370241598
 C         -1.6107228931        0.1065441619        0.3559918839
 O         -1.3730462864       -1.1604082013       -0.2200734142
 H          1.9731171662       -1.9039622868       -0.2378204624
 H          0.4173834544       -1.4022740388        0.1299250652
 H          1.6491704009       -1.1980126124        1.2378423869
 H          1.4956694241        0.1305996056       -1.4402562785
 H          2.6900314332        0.4500189113       -0.2044179324
 H          1.1441147923        2.2373839996        0.0080262899
 H          0.7453335911        1.1812154354        1.3309280072
 H         -0.7766675699        1.1558305711       -1.3293382589
 H         -1.2114089500        2.1900979292        0.0034931410
 H         -2.6848230701        0.3281234719        0.2661557675
 H         -1.4164283716        0.0017022402        1.4312481853
 H         -1.9316259546       -1.3193372038       -1.0060761733
