  18

 N          0.9879906763        0.1190908575        0.0615383771
 C          2.4856923884        0.1159187166        0.0193317902
 C          3.0298312651       -0.8483275938        1.0603499319
 C          4.5599874662       -0.8507886799        1.0991473997
 C          5.0289320114       -1.6652153330        2.3152488468
 O          4.5332434319       -1.1233021664        3.5144577723
 H          0.5879247441        0.7599479887       -0.6352273623
 H          0.6716804356        0.4034154370        0.9988288120
 H          0.6352444251       -0.8308627390       -0.1171374146
 H          2.8374141578        1.1299227567        0.2145092568
 H          2.8042395449       -0.1776694199       -0.9818973626
 H          2.6856420062       -1.8626062350        0.8506983799
 H          2.6833224234       -0.5682845214        2.0578303233
 H          4.9280065908        0.1729382568        1.1897220276
 H          4.9719610734       -1.2864758030        0.1902755861
 H          6.1208053936       -1.7286255633        2.3209824366
 H          4.6259107167       -2.6794428752        2.2536185882
 H          5.1084612491       -0.4119630833        3.8149026110
