22
0.878
N           -0.37347  -0.68303   1.05493
C            0.88332  -0.63701   0.24203
C            0.70861   0.26208  -1.00061
C            0.61132   1.75008  -0.62598
C            1.82659   2.19394   0.20463
C            1.98767   1.32114   1.46028
C            2.08298  -0.17027   1.09487
Cl          -3.00178  -1.55612  -1.04253
H           -0.59754   0.24736   1.43558
H           -0.28683  -1.33310   1.85250
H           -1.17811  -0.98278   0.47830
H            1.08536  -1.66593  -0.10423
H           -0.18329  -0.05122  -1.55901
H            1.55361   0.11254  -1.68327
H           -0.30807   1.92761  -0.05441
H            0.51242   2.37024  -1.52844
H            1.74648   3.25643   0.47570
H            2.73310   2.11742  -0.40924
H            1.13577   1.48420   2.13201
H            2.87030   1.63403   2.03639
H            2.14715  -0.78273   2.00326
H            3.01541  -0.35250   0.54733
