36
0.855
N           -4.78427  -0.63314  -0.73560
C           -5.10085   0.56277   0.09456
C           -4.22796   1.76257  -0.26454
C           -2.76849   1.50352  -0.03512
C           -2.24191   1.53110   1.24731
C           -0.90989   1.25897   1.46916
C           -0.05432   0.94547   0.41310
C            1.34901   0.66436   0.68621
C            2.29449   0.45435  -0.24035
C            3.69810   0.17686   0.03323
C            4.59882   0.09854  -1.02859
C            5.93963  -0.15963  -0.82162
F            6.79915  -0.22623  -1.87582
C            6.39870  -0.34777   0.47018
C            5.52615  -0.27888   1.53646
C            4.18941  -0.02015   1.32462
C           -0.59298   0.91081  -0.87340
C           -1.92608   1.18401  -1.08983
Cl          -6.80326  -3.33642   0.25537
H           -5.36548  -1.44598  -0.47451
H           -3.79790  -0.90394  -0.62350
H           -4.94192  -0.44009  -1.73683
H           -4.96457   0.31447   1.15351
H           -6.16259   0.81424  -0.01670
H           -4.52911   2.64467   0.31232
H           -4.38630   2.03095  -1.31405
H           -2.88984   1.76719   2.07446
H           -0.51595   1.28719   2.47082
H            1.63088   0.64195   1.72334
H            2.01866   0.50408  -1.27809
H            4.25322   0.24365  -2.03576
H            7.44432  -0.54866   0.62359
H            5.89241  -0.42910   2.53893
H            3.51995   0.02184   2.16527
H            0.03531   0.65953  -1.70955
H           -2.32707   1.14940  -2.08876
