36
0.449
N           -6.32902   0.65297  -0.95377
C           -4.84647   0.80646  -0.99088
C           -4.20769   0.58540   0.37551
C           -2.71142   0.69147   0.34220
C           -2.08306   1.91458   0.52251
C           -0.71105   2.01884   0.45588
C            0.08357   0.90093   0.20172
C            1.53144   1.04926   0.13226
C            2.41131   0.04148   0.04906
C            3.85852   0.18789  -0.02742
C            4.66405  -0.94979   0.01471
C            6.04050  -0.86390  -0.05780
F            6.80434  -1.99056  -0.01556
C            6.63333   0.38090  -0.17610
C            5.85731   1.52048  -0.22266
C            4.48437   1.42935  -0.15001
C           -0.55650  -0.32378   0.00929
C           -1.92916  -0.42269   0.07667
Cl          -6.92469  -2.57720   0.29464
H           -6.75443   0.77887  -1.88168
H           -6.75310   1.33572  -0.31287
H           -6.58135  -0.28984  -0.61258
H           -4.58280   1.80191  -1.36654
H           -4.41982   0.10029  -1.71262
H           -4.49454  -0.39807   0.76270
H           -4.60975   1.30597   1.09506
H           -2.68233   2.78871   0.71342
H           -0.23768   2.97495   0.60114
H            1.90384   2.05722   0.16464
H            2.03994  -0.96735   0.05171
H            4.21433  -1.92145   0.10710
H            7.70593   0.43992  -0.23272
H            6.32783   2.48549  -0.31777
H            3.89238   2.32603  -0.19653
H            0.02505  -1.20211  -0.20866
H           -2.41003  -1.37315  -0.08292
