36
0.244
N           -4.91186  -0.92323   1.21785
C           -5.24725   0.52847   1.26803
C           -4.53792   1.32069   0.17206
C           -3.04776   1.15801   0.20644
C           -2.42704   0.18487  -0.56204
C           -1.06188   0.00813  -0.51424
C           -0.26669   0.79983   0.31462
C            1.17998   0.64742   0.39685
C            1.90728  -0.25256  -0.27963
C            3.35377  -0.40231  -0.19835
C            4.14846   0.41630   0.60381
C            5.51904   0.25493   0.66259
F            6.27258   1.06718   1.45442
C            6.11684  -0.74002  -0.09102
C            5.35136  -1.56172  -0.89198
C            3.98487  -1.39676  -0.94683
C           -0.89993   1.76992   1.09216
C           -2.26561   1.94247   1.04018
Cl          -4.88226  -1.83068  -2.19416
H           -5.48456  -1.48110   1.86587
H           -3.92281  -1.07690   1.45553
H           -5.05186  -1.29014   0.26165
H           -4.97450   0.92841   2.25152
H           -6.33321   0.65828   1.18531
H           -4.78708   2.38575   0.24284
H           -4.90638   1.00036  -0.80823
H           -3.03136  -0.44339  -1.19505
H           -0.60879  -0.75322  -1.12365
H            1.68614   1.32265   1.06268
H            1.40146  -0.93097  -0.94233
H            3.70902   1.19635   1.19580
H            7.18488  -0.85752  -0.03936
H            5.82441  -2.33420  -1.47599
H            3.38972  -2.03960  -1.57290
H           -0.30533   2.38916   1.74243
H           -2.73963   2.69165   1.65168
