36
0.663
N           -6.28514  -0.09303   1.11178
C           -4.79669  -0.12664   1.19408
C           -4.13822   0.72173   0.11211
C           -2.63950   0.67047   0.16227
C           -1.94148  -0.30665  -0.53184
C           -0.56696  -0.37689  -0.46460
C            0.15942   0.53031   0.30707
C            1.61272   0.48844   0.40492
C            2.41906  -0.25515  -0.36549
C            3.87163  -0.29902  -0.26687
C            4.56765   0.30413   0.78045
C            5.94566   0.24709   0.85593
F            6.60212   0.84192   1.89034
C            6.65041  -0.42298  -0.12886
C            5.98319  -1.03065  -1.17226
C            4.60869  -0.97211  -1.24211
C           -0.55105   1.50058   1.01412
C           -1.92513   1.56683   0.94312
Cl          -7.11302  -1.19982  -2.11945
H           -6.59854  -0.42704   0.18810
H           -6.63835   0.86551   1.22818
H           -6.72711  -0.68652   1.83044
H           -4.44501  -1.16178   1.11239
H           -4.46947   0.21505   2.18280
H           -4.47159   1.76104   0.20080
H           -4.48093   0.39340  -0.87471
H           -2.48965  -1.01847  -1.12568
H           -0.05140  -1.15179  -1.00362
H            2.05514   1.12772   1.14756
H            1.97938  -0.86010  -1.13785
H            4.04137   0.81784   1.56247
H            7.72340  -0.46109  -0.06197
H            6.53908  -1.55273  -1.93388
H            4.08978  -1.44748  -2.05713
H           -0.00987   2.20647   1.62131
H           -2.45891   2.31915   1.49903
