36
1.384
N           -6.24923  -0.01252  -0.32336
C           -4.78258  -0.01698  -0.05445
C           -4.00574   0.84901  -1.03942
C           -2.53081   0.86313  -0.76338
C           -1.69584  -0.09289  -1.32250
C           -0.34629  -0.10408  -1.04391
C            0.21615   0.84327  -0.18811
C            1.63680   0.86575   0.13482
C            2.57577   0.09879  -0.43673
C            3.99542   0.12029  -0.11085
C            4.88730  -0.61763  -0.88860
C            6.24165  -0.63094  -0.61867
F            7.09136  -1.36072  -1.39318
C            6.72387   0.10457   0.44973
C            5.86055   0.83918   1.23589
C            4.51007   0.84897   0.96249
C           -0.63259   1.79345   0.38015
C           -1.98087   1.80037   0.09837
Cl          -7.89467  -2.04762   2.04467
H           -6.45098  -0.36616  -1.26746
H           -6.63168   0.93984  -0.25927
H           -6.76264  -0.60501   0.35256
H           -4.40247  -1.04467  -0.08820
H           -4.59271   0.32896   0.96820
H           -4.39082   1.87384  -1.01583
H           -4.18251   0.49876  -2.06154
H           -2.11701  -0.83548  -1.97898
H            0.27623  -0.86197  -1.48512
H            1.93770   1.57396   0.88558
H            2.28084  -0.58475  -1.21223
H            4.52390  -1.19124  -1.72155
H            7.77998   0.08934   0.65375
H            6.24476   1.40611   2.06813
H            3.84782   1.41734   1.59105
H           -0.22010   2.53018   1.04869
H           -2.62319   2.53718   0.55056
