19
 xtb: 6.5.1 (fef0646)
N           -0.47369827445762       -1.90849216173982       -0.95723701465258
C            0.99236543748115       -1.64234262301156       -0.90478503556199
C            1.52345336717442       -1.51760296047238        0.52030297000760
C            1.08155789253063       -0.25285595951751        1.25749078972635
C            1.63621546429132        1.02856403239124        0.63722443759203
O            1.07599606965742        1.33138890908656       -0.62593397385514
Cl          -2.38715893069442        1.28006346487960        0.14955471363208
H           -1.01552931341563       -1.00403185674848       -0.53675585806369
H           -0.80117574378869       -2.64078363216068       -0.36134167550521
H           -0.88211421672823       -1.96351910532619       -1.88184649408230
H            1.20957110534760       -0.72568269740801       -1.47587729915936
H            1.42882656356323       -2.45542918818670       -1.42825627422452
H            2.60619057869580       -1.55003974441458        0.48084336757569
H            1.20709825005343       -2.39693406216442        1.08165556795720
H            1.41606158096171       -0.31561995130040        2.31035797895856
H           -0.00354244507791       -0.18572365778917        1.30876952045400
H            2.72548359402691        0.95094541303708        0.50127712410547
H            1.48785194459882        1.89712618919656        1.30534150588052
H            0.10004159598926        1.39340299888444       -0.53150126405072
