23
 xtb: 6.5.1 (fef0646)
N           -2.08586008612525        0.18911795219951        0.65302819781342
C           -1.28823793821552        0.38924475874300       -0.58480257563370
C            0.17454412763570        0.15075824969572       -0.37449718043257
C            1.00688855824176        1.17977869212101        0.04259380071946
C            2.35070567335779        0.95484716931248        0.26726982877836
C            2.90545885504952       -0.30901233829963        0.07867340572487
C            4.33508496482364       -0.53477089729194        0.32464984750215
C            5.05329661693283       -1.47770460970985       -0.28105797425214
C            2.06334406445695       -1.34160155692641       -0.32871249899591
C            0.71872315990435       -1.11405709573276       -0.54768829206392
Cl          -5.33446186571094        0.70210345028459        0.21583511553278
H           -1.92749160230055       -0.78263467903602        1.02440870836014
H           -3.07147495084694        0.33983227040847        0.54057092997929
H           -1.72615519038162        0.81910912813518        1.41758463053549
H           -1.44065259952824        1.40714212928492       -0.95164391741215
H           -1.65644100120924       -0.27618838027037       -1.36537510027471
H            0.59295241273125        2.15766324830171        0.21668911096403
H            2.99138633996160        1.76134790581889        0.59726569592202
H            4.83633596727350        0.18684618054665        0.95256388278669
H            4.61811188063151       -2.21498562823828       -0.90613718572003
H            6.10621587121865       -1.62238236055135       -0.02498193584156
H            2.47772323143968       -2.32413581393583       -0.49532607921861
H            0.08856329557865       -1.91590310594065       -0.88414077831790
