28
 xtb: 6.5.1 (fef0646)
N           -1.94550774298761       -0.29261580401204       -0.73327154204063
C           -1.20036353105186       -0.97383512856717        0.37057329961533
C            0.16463741069389       -1.54460704463165       -0.04866078686334
C            1.37301514443618       -0.66129926356965        0.32172151273848
C            1.34057571527676        0.71799402763324       -0.37695023869092
C            2.55545054506323        1.58232021607394        0.00416980067082
C            3.87540520710759        0.85519764736756       -0.30514856435838
C            3.92437909304529       -0.51202675778611        0.39775731356651
C            2.71162137933264       -1.37508894338932        0.00738113397798
Cl          -4.78403353099293        0.85051653667312        0.19715764470606
H           -1.32356970328554        0.45780449196845       -1.16066069504244
H           -2.80093642820548        0.06669513225772       -0.48848369297411
H           -2.04707668614602       -0.97996442236893       -1.54872516191930
H           -1.82688478094991       -1.79164813672498        0.73768620388920
H           -1.06205676180088       -0.29713927571330        1.19475226073359
H            0.20781677530744       -1.76059899395855       -1.11606121323102
H            0.33753597509813       -2.54833153050528        0.42928957911516
H            1.35984172177398       -0.48609042057559        1.41171675592410
H            0.41255027457971        1.22825147098907       -0.13417517268593
H            1.32809840468886        0.55216603299183       -1.45978493277057
H            2.51514055918499        1.81542692764013        1.07380185046302
H            2.51469163439568        2.55078178095571       -0.51007453135100
H            4.74212283461239        1.48268325653169       -0.02269234981599
H            3.97177284404050        0.71354735235786       -1.38921177797955
H            3.94267961235302       -0.35433202498650        1.48558630837787
H            4.88245005861431       -1.02339683537167        0.17375172509470
H            2.77318775081482       -2.35302354905437        0.50754797053101
H            2.76829322327689       -1.59468449170449       -1.06311791228913
