 xtb: 6.5.1 (fef0646)
          01232314113D

 16 14  0     0  0            999 V2000
    1.1114   -0.1196   -0.5177 N   0  0  0  0  0  0  0  0  0  0  0  0
    2.5544   -0.3289   -0.6278 C   0  0  0  0  0  0  0  0  0  0  0  0
    3.0006   -1.4194    0.3484 C   0  0  0  0  0  0  0  0  0  0  0  0
    4.4893   -1.5608    0.3532 C   0  0  0  0  0  0  0  0  0  0  0  0
    5.1369   -2.6627    0.0267 C   0  0  0  0  0  0  0  0  0  0  0  0
    0.4517    0.6906    2.2221 Cl  0  0  0  0  0  0  0  0  0  0  0  0
    0.7957    0.6078   -1.1493 H   0  0  0  0  0  0  0  0  0  0  0  0
    0.7637    0.3098    0.9404 H   0  0  0  0  0  0  0  0  0  0  0  0
    0.6066   -0.9758   -0.7236 H   0  0  0  0  0  0  0  0  0  0  0  0
    3.0430    0.6142   -0.3722 H   0  0  0  0  0  0  0  0  0  0  0  0
    2.8570   -0.6065   -1.6477 H   0  0  0  0  0  0  0  0  0  0  0  0
    2.5366   -2.3694    0.0758 H   0  0  0  0  0  0  0  0  0  0  0  0
    2.6573   -1.1417    1.3473 H   0  0  0  0  0  0  0  0  0  0  0  0
    5.0337   -0.6732    0.6473 H   0  0  0  0  0  0  0  0  0  0  0  0
    4.6164   -3.5602   -0.2663 H   0  0  0  0  0  0  0  0  0  0  0  0
    6.2113   -2.7225    0.0480 H   0  0  0  0  0  0  0  0  0  0  0  0
  1  2  1  0  0  0  0
  2  3  1  0  0  0  0
  3  4  1  0  0  0  0
  4  5  2  0  0  0  0
  1  7  1  0  0  0  0
  6  8  1  0  0  0  0
  1  9  1  0  0  0  0
  2 10  1  0  0  0  0
  2 11  1  0  0  0  0
  3 12  1  0  0  0  0
  3 13  1  0  0  0  0
  4 14  1  0  0  0  0
  5 15  1  0  0  0  0
  5 16  1  0  0  0  0
M  END
