 xtb: 6.5.1 (fef0646)
          01242315533D

 27 27  0     0  0            999 V2000
    0.8146    0.2558   -0.1240 N   0  0  0  0  0  0  0  0  0  0  0  0
    2.2952    0.1950   -0.0452 C   0  0  0  0  0  0  0  0  0  0  0  0
    2.8670   -0.3939   -1.3300 C   0  0  0  0  0  0  0  0  0  0  0  0
    4.4008   -0.3929   -1.3519 C   0  0  0  0  0  0  0  0  0  0  0  0
    4.8971   -0.7468   -2.7573 C   0  0  0  0  0  0  0  0  0  0  0  0
    6.4214   -0.7443   -2.8218 C   0  0  0  0  0  0  0  0  0  0  0  0
    6.9995   -1.7291   -1.8105 C   0  0  0  0  0  0  0  0  0  0  0  0
    6.5165   -1.3808   -0.4063 C   0  0  0  0  0  0  0  0  0  0  0  0
    4.9911   -1.3817   -0.3431 C   0  0  0  0  0  0  0  0  0  0  0  0
    0.4182    0.6441    0.7393 H   0  0  0  0  0  0  0  0  0  0  0  0
    0.4320   -0.6863   -0.2684 H   0  0  0  0  0  0  0  0  0  0  0  0
    0.5262    0.8447   -0.9142 H   0  0  0  0  0  0  0  0  0  0  0  0
    2.5762   -0.4182    0.8093 H   0  0  0  0  0  0  0  0  0  0  0  0
    2.6879    1.2006    0.1039 H   0  0  0  0  0  0  0  0  0  0  0  0
    2.5233    0.1931   -2.1834 H   0  0  0  0  0  0  0  0  0  0  0  0
    2.5236   -1.4208   -1.4624 H   0  0  0  0  0  0  0  0  0  0  0  0
    4.7640    0.6108   -1.1066 H   0  0  0  0  0  0  0  0  0  0  0  0
    4.5062   -0.0315   -3.4839 H   0  0  0  0  0  0  0  0  0  0  0  0
    4.5326   -1.7390   -3.0331 H   0  0  0  0  0  0  0  0  0  0  0  0
    6.7969    0.2584   -2.6030 H   0  0  0  0  0  0  0  0  0  0  0  0
    6.7515   -1.0081   -3.8290 H   0  0  0  0  0  0  0  0  0  0  0  0
    8.0909   -1.7070   -1.8480 H   0  0  0  0  0  0  0  0  0  0  0  0
    6.6807   -2.7427   -2.0661 H   0  0  0  0  0  0  0  0  0  0  0  0
    6.8943   -0.3925   -0.1330 H   0  0  0  0  0  0  0  0  0  0  0  0
    6.9183   -2.0988    0.3119 H   0  0  0  0  0  0  0  0  0  0  0  0
    4.6881   -1.1244    0.6720 H   0  0  0  0  0  0  0  0  0  0  0  0
    4.6293   -2.3879   -0.5659 H   0  0  0  0  0  0  0  0  0  0  0  0
  1  2  1  0  0  0  0
  2  3  1  0  0  0  0
  3  4  1  0  0  0  0
  4  5  1  0  0  0  0
  5  6  1  0  0  0  0
  6  7  1  0  0  0  0
  7  8  1  0  0  0  0
  4  9  1  0  0  0  0
  8  9  1  0  0  0  0
  1 10  1  0  0  0  0
  1 11  1  0  0  0  0
  1 12  1  0  0  0  0
  2 13  1  0  0  0  0
  2 14  1  0  0  0  0
  3 15  1  0  0  0  0
  3 16  1  0  0  0  0
  4 17  1  0  0  0  0
  5 18  1  0  0  0  0
  5 19  1  0  0  0  0
  6 20  1  0  0  0  0
  6 21  1  0  0  0  0
  7 22  1  0  0  0  0
  7 23  1  0  0  0  0
  8 24  1  0  0  0  0
  8 25  1  0  0  0  0
  9 26  1  0  0  0  0
  9 27  1  0  0  0  0
M  CHG  1   1   1
M  END
