 xtb: 6.5.1 (fef0646)
          01242310113D

 37 39  0     0  0            999 V2000
   -3.2226    0.9319   -1.1611 N   0  0  0  0  0  0  0  0  0  0  0  0
   -3.9210    0.3984    0.0311 C   0  0  0  0  0  0  0  0  0  0  0  0
   -3.6314    1.2996    1.2234 C   0  0  0  0  0  0  0  0  0  0  0  0
   -2.2605    1.6866    1.2501 O   0  0  0  0  0  0  0  0  0  0  0  0
   -1.3463    0.6488    1.3746 C   0  0  0  0  0  0  0  0  0  0  0  0
   -0.0533    0.8480    0.8219 C   0  0  0  0  0  0  0  0  0  0  0  0
    0.2897    2.0664    0.1825 C   0  0  0  0  0  0  0  0  0  0  0  0
    1.5160    2.2531   -0.3713 C   0  0  0  0  0  0  0  0  0  0  0  0
    0.9036   -0.1905    0.8803 C   0  0  0  0  0  0  0  0  0  0  0  0
    0.5873   -1.4202    1.5047 C   0  0  0  0  0  0  0  0  0  0  0  0
   -0.6894   -1.5816    2.0598 C   0  0  0  0  0  0  0  0  0  0  0  0
   -1.6237   -0.5794    1.9958 C   0  0  0  0  0  0  0  0  0  0  0  0
    1.5729   -2.4446    1.5474 C   0  0  0  0  0  0  0  0  0  0  0  0
    2.8015   -2.2632    0.9987 C   0  0  0  0  0  0  0  0  0  0  0  0
    3.1506   -1.0389    0.3580 C   0  0  0  0  0  0  0  0  0  0  0  0
    4.4057   -0.8263   -0.2179 C   0  0  0  0  0  0  0  0  0  0  0  0
    4.7069    0.3733   -0.8321 C   0  0  0  0  0  0  0  0  0  0  0  0
    3.7747    1.3899   -0.8913 C   0  0  0  0  0  0  0  0  0  0  0  0
    2.5046    1.2284   -0.3306 C   0  0  0  0  0  0  0  0  0  0  0  0
    2.1902    0.0008    0.3017 C   0  0  0  0  0  0  0  0  0  0  0  0
   -3.2777   -1.2861   -3.8117 Cl  0  0  0  0  0  0  0  0  0  0  0  0
   -2.2329    1.1012   -0.9141 H   0  0  0  0  0  0  0  0  0  0  0  0
   -3.6193    1.8399   -1.4491 H   0  0  0  0  0  0  0  0  0  0  0  0
   -3.2545    0.2844   -1.9739 H   0  0  0  0  0  0  0  0  0  0  0  0
   -3.5594   -0.6167    0.2318 H   0  0  0  0  0  0  0  0  0  0  0  0
   -4.9983    0.3053   -0.1521 H   0  0  0  0  0  0  0  0  0  0  0  0
   -3.9052    0.8489    2.1833 H   0  0  0  0  0  0  0  0  0  0  0  0
   -4.2031    2.2309    1.1420 H   0  0  0  0  0  0  0  0  0  0  0  0
   -0.4473    2.8523    0.1571 H   0  0  0  0  0  0  0  0  0  0  0  0
    1.7589    3.1875   -0.8493 H   0  0  0  0  0  0  0  0  0  0  0  0
   -0.9305   -2.5140    2.5433 H   0  0  0  0  0  0  0  0  0  0  0  0
   -2.5880   -0.7312    2.4467 H   0  0  0  0  0  0  0  0  0  0  0  0
    1.3262   -3.3774    2.0270 H   0  0  0  0  0  0  0  0  0  0  0  0
    3.5354   -3.0509    1.0403 H   0  0  0  0  0  0  0  0  0  0  0  0
    5.1401   -1.6137   -0.1775 H   0  0  0  0  0  0  0  0  0  0  0  0
    5.6818    0.5176   -1.2706 H   0  0  0  0  0  0  0  0  0  0  0  0
    4.0194    2.3223   -1.3727 H   0  0  0  0  0  0  0  0  0  0  0  0
  1  2  1  0  0  0  0
  2  3  1  0  0  0  0
  3  4  1  0  0  0  0
  4  5  1  0  0  0  0
  5  6  4  0  0  0  0
  6  7  4  0  0  0  0
  7  8  2  0  0  0  0
  6  9  4  0  0  0  0
  9 10  4  0  0  0  0
 10 11  4  0  0  0  0
  5 12  4  0  0  0  0
 11 12  4  0  0  0  0
 10 13  4  0  0  0  0
 13 14  2  0  0  0  0
 14 15  4  0  0  0  0
 15 16  4  0  0  0  0
 16 17  4  0  0  0  0
 17 18  4  0  0  0  0
  8 19  4  0  0  0  0
 18 19  4  0  0  0  0
  9 20  4  0  0  0  0
 15 20  4  0  0  0  0
 19 20  4  0  0  0  0
  1 22  1  0  0  0  0
  1 23  1  0  0  0  0
  1 24  1  0  0  0  0
  2 25  1  0  0  0  0
  2 26  1  0  0  0  0
  3 27  1  0  0  0  0
  3 28  1  0  0  0  0
  7 29  1  0  0  0  0
  8 30  1  0  0  0  0
 11 31  1  0  0  0  0
 12 32  1  0  0  0  0
 13 33  1  0  0  0  0
 14 34  1  0  0  0  0
 16 35  1  0  0  0  0
 17 36  1  0  0  0  0
 18 37  1  0  0  0  0
M  END
