14
0.0
N            0.14388  -1.30762  -0.86569
C            0.97100  -1.46038   0.36509
C            1.33208  -0.10939   0.98551
C            2.13168   0.72044   0.15492
C            2.80841   1.41633  -0.57000
Cl          -2.73224   0.48575   0.03426
H            0.64755  -0.76267  -1.57849
H           -0.73020  -0.79684  -0.65134
H           -0.11188  -2.21524  -1.28039
H            1.88842  -2.00997   0.12447
H            0.43401  -2.08292   1.09172
H            1.85102  -0.25953   1.94174
H            0.40958   0.42854   1.23697
H            3.40295   2.02748  -1.20793
