  43

 N         -5.1076904097        0.3130048377        0.1395578696
 C         -4.6016012171       -0.5488384667       -0.9581980819
 C         -3.9333934344        0.2953383934       -2.0348294903
 O         -2.8929325701        1.1159968155       -1.5107390486
 C         -1.6900086353        0.4846165747       -1.2539231851
 C         -1.4118992632       -0.8518084312       -1.5192751447
 C         -0.1809115198       -1.4042014025       -1.2333153610
 C          0.8518936199       -0.6637722600       -0.6654787447
 C          0.6185704423        0.7117254267       -0.3815222014
 C          1.6367595815        1.5300014912        0.1893746730
 C          1.3489293761        2.8620546925        0.4481400090
 C          0.1059571316        3.4072989005        0.1585137914
 C         -0.8754291863        2.6329067753       -0.3952511734
 C         -0.6472879361        1.2803636304       -0.6744691414
 C          2.1498580337       -1.2511486380       -0.3591293959
 C          2.4297564135       -2.5896162304       -0.5958605489
 C          3.6731748949       -3.1390901075       -0.3049323435
 C          4.6644659127       -2.3670849235        0.2278118608
 C          4.4412862876       -1.0013044597        0.4944830734
 C          5.4542757732       -0.1910250430        1.0454307763
 C          5.2218198883        1.1289605657        1.3000991299
 C          3.9815066059        1.6936309554        1.0221236260
 C          2.9457716796        0.9474998400        0.4814579435
 C          3.1735505250       -0.4319711635        0.2042052407
 Cl        -6.6122780210       -1.6165663121        2.6559664653
 H         -5.5416993390       -0.2378058279        0.9025165881
 H         -5.8075992978        0.9804328793       -0.2109445973
 H         -4.3337639637        0.8613635609        0.5368543902
 H         -5.4197253658       -1.1430214774       -1.3818006782
 H         -3.8864304409       -1.2699677746       -0.5487126804
 H         -4.6663983958        0.9815000817       -2.4737698283
 H         -3.5440720616       -0.3000199721       -2.8677827909
 H         -2.1671522922       -1.4757819327       -1.9606706166
 H         -0.0240313240       -2.4419682354       -1.4645492886
 H          2.0976833692        3.4982683325        0.8834334347
 H         -0.0851209581        4.4469307293        0.3697188972
 H         -1.8390046573        3.0521538913       -0.6287169586
 H          1.6740808309       -3.2301312480       -1.0123528310
 H          3.8542848323       -4.1833349117       -0.5027854814
 H          5.6273601251       -2.7940923829        0.4513512366
 H          6.4144342435       -0.6275336893        1.2623223571
 H          6.0042565896        1.7399893322        1.7204856802
 H          3.8363059189        2.7367278940        1.2358997807
          43
        -67.89043160
 N         -5.0153453324        0.3962489139        0.1333834222
 C         -4.5685971135       -0.2802567111       -1.1100340577
 C         -3.9132783333        0.7179551871       -2.0549174292
 O         -2.8529914065        1.4372227128       -1.4315619440
 C         -1.6682609167        0.7463014990       -1.2569305365
 C         -1.4070054254       -0.5346631776       -1.7307838597
 C         -0.1943366110       -1.1534451135       -1.5099935952
 C          0.8371194311       -0.5376890292       -0.8068481450
 C          0.6200696963        0.7771183778       -0.3054354554
 C          1.6348118448        1.4664550880        0.4207494795
 C          1.3654221965        2.7462341035        0.8831244164
 C          0.1426759878        3.3608779895        0.6525029019
 C         -0.8369309622        2.7089389942       -0.0437176406
 C         -0.6262173658        1.4145650561       -0.5331250665
 C          2.1185008767       -1.1925019171       -0.5769525242
 C          2.3893942363       -2.4711831425       -1.0433862689
 C          3.6159164668       -3.0864226575       -0.8202466718
 C          4.5989544065       -2.4411185853       -0.1276710357
 C          4.3852919919       -1.1407571264        0.3720135745
 C          5.3907770541       -0.4608990094        1.0882958685
 C          5.1691101110        0.7980454794        1.5649075812
 C          3.9481182530        1.4287770148        1.3508035719
 C          2.9211678539        0.8114349800        0.6536369016
 C          3.1360453022       -0.5042130539        0.1491734321
 Cl        -6.3576210064       -1.9367431976        2.3870480351
 H         -5.4188183896       -0.2687833349        0.8181553947
 H         -5.7223391161        1.1147032516       -0.0723066352
 H         -4.2171081745        0.8700529307        0.5760444618
 H         -5.4148453440       -0.7794595931       -1.5963981083
 H         -3.8597718963       -1.0738527390       -0.8511847392
 H         -4.6469593405        1.4709067644       -2.3640265230
 H         -3.5473839536        0.2576025724       -2.9790547454
 H         -2.1601558372       -1.0586680067       -2.2901106245
 H         -0.0515037193       -2.1444008364       -1.9006885165
 H          2.1135117786        3.2867832687        1.4336341103
 H         -0.0344044104        4.3573874402        1.0234044038
 H         -1.7855353142        3.1824233708       -0.2302228792
 H          1.6405896991       -3.0113916528       -1.5931222955
 H          3.7906338843       -4.0809251885       -1.1981813203
 H          5.5485822456       -2.9188973691        0.0438405437
 H          6.3366156553       -0.9480707023        1.2542332558
 H          5.9452096646        1.3092712577        2.1113631442
 H          3.8109885603        2.4205907223        1.7411063255
          43
        -67.89103912
 N         -5.8275090164       -0.1068331941        1.2537755735
 C         -4.6490232616        0.8029674571        1.2039264670
 C         -4.3189685397        1.2338965742       -0.2212160993
 O         -3.0559865834        1.8905403145       -0.3260504719
 C         -1.9457607291        1.0708603056       -0.2450508318
 C         -1.9769052264       -0.3183675034       -0.1904879088
 C         -0.8205334809       -1.0644005455       -0.1051843455
 C          0.4409326325       -0.4776351379       -0.0675934990
 C          0.5261255494        0.9424277729       -0.1254478781
 C          1.7863862204        1.6077445713       -0.0915550104
 C          1.8058159419        2.9934423263       -0.1526930841
 C          0.6357521548        3.7344067459       -0.2434115867
 C         -0.5782654453        3.1061893923       -0.2745483958
 C         -0.6627364141        1.7102326751       -0.2171971683
 C          1.6612811913       -1.2679880689        0.0288262498
 C          1.6410650608       -2.6542729647        0.0894318734
 C          2.8110454453       -3.3991313020        0.1837835684
 C          4.0261644674       -2.7789421253        0.2202643046
 C          4.1131859628       -1.3734491139        0.1624885353
 C          5.3603318448       -0.7181731836        0.2006291375
 C          5.4279578001        0.6433062656        0.1450628017
 C          4.2676211038        1.4042138333        0.0495536258
 C          3.0124697682        0.8172465565        0.0076434727
 C          2.9239572373       -0.6042207531        0.0653674715
 Cl        -4.5880513347       -2.7472319042       -0.6544595084
 H         -6.0537761799       -0.3978061615        2.2171391420
 H         -5.6340168863       -0.9563590871        0.7034247006
 H         -6.6593688763        0.3435152528        0.8511072362
 H         -3.7808838749        0.3029141940        1.6461255081
 H         -4.8192108506        1.6874128637        1.8279179149
 H         -5.0749000427        1.9368889125       -0.5887369239
 H         -4.3411035558        0.3905484197       -0.9182821904
 H         -2.9199122915       -0.8333076098       -0.2193987835
 H         -0.9090219422       -2.1347563189       -0.0664981200
 H          2.7430566070        3.5187603830       -0.1299910201
 H          0.6850540975        4.8102624640       -0.2884429099
 H         -1.4898460310        3.6748033711       -0.3430576341
 H          0.7034168215       -3.1786463671        0.0641524407
 H          2.7563547227       -4.4749367209        0.2287901976
 H          4.9313411624       -3.3574603508        0.2940070895
 H          6.2592823349       -1.3062821732        0.2746469771
 H          6.3871901828        1.1344656894        0.1753000960
 H          4.3610493897        2.4739977901        0.0086329106
          43
        -67.89255622
 N          5.8245511676        0.9686888846        0.0039234787
 C          5.4787375500        0.4827153544       -1.3558656780
 C          4.1020154452       -0.1653745824       -1.3561492262
 O          3.0972253542        0.7533367951       -0.9408341628
 C          1.8277580083        0.2180286371       -0.8223383421
 C          1.4970382042       -1.1062116989       -1.0891757282
 C          0.2073427965       -1.5720104690       -0.9417270269
 C         -0.8349547156       -0.7516836143       -0.5194431965
 C         -0.5471862694        0.6143688115       -0.2388497499
 C         -1.5691396161        1.5097348822        0.1926129111
 C         -1.2288105930        2.8298926014        0.4486826751
 C          0.0710957016        3.2898944922        0.2912770843
 C          1.0584440879        2.4397072403       -0.1230301864
 C          0.7782673585        1.0952355686       -0.3929083732
 C         -2.1962862343       -1.2470209465       -0.3612968861
 C         -2.5364770544       -2.5680741779       -0.6162997098
 C         -3.8388009505       -3.0301673265       -0.4644708075
 C         -4.8301871496       -2.1863676024       -0.0550751962
 C         -4.5481669956       -0.8334055825        0.2210152012
 C         -5.5609890672        0.0505229732        0.6442237522
 C         -5.2722497186        1.3576746294        0.9073578991
 C         -3.9746088774        1.8367637592        0.7621659408
 C         -2.9364746581        1.0159848653        0.3494622938
 C         -3.2211046744       -0.3523061684        0.0694625673
 Cl         5.4739577766       -1.8213537322        2.0985097367
 H          6.7547769913        1.4155006158        0.0422496663
 H          5.8094426244        0.1861302139        0.6753606404
 H          5.1209381412        1.6485234751        0.3197649126
 H          6.2400250812       -0.2222134287       -1.7100981755
 H          5.4868222554        1.3224570598       -2.0596156521
 H          4.0919880533       -1.0127577455       -0.6623624463
 H          3.8372963427       -0.5369713737       -2.3528054029
 H          2.2595435792       -1.7863776952       -1.4228152260
 H          0.0117962479       -2.6049667820       -1.1648323289
 H         -1.9805812762        3.5243455164        0.7765561907
 H          0.3022997237        4.3226953410        0.4957746125
 H          2.0671436991        2.7919202861       -0.2522716306
 H         -1.7832288144       -3.2630352339       -0.9394283261
 H         -4.0660414203       -4.0633308186       -0.6725845210
 H         -5.8385556302       -2.5457647144        0.0610959979
 H         -6.5660301519       -0.3192033860        0.7567570814
 H         -6.0547348789        2.0253831227        1.2300919311
 H         -3.7860070735        2.8723593451        0.9785305446
          43
        -67.89265009
 N          5.8208054044        1.0117693122       -0.0153904901
 C          5.4442658463        0.5461670173       -1.3742113693
 C          4.0776810930       -0.1225580672       -1.3497911778
 O          3.0687527380        0.7808958556       -0.9115985574
 C          1.8033745408        0.2352936822       -0.7962820017
 C          1.4838818390       -1.0923161218       -1.0598453981
 C          0.1970091018       -1.5672315404       -0.9161440598
 C         -0.8535942362       -0.7530059600       -0.5025571615
 C         -0.5769593165        0.6157458210       -0.2238461837
 C         -1.6072939395        1.5048040608        0.2006859065
 C         -1.2781146313        2.8286591717        0.4522446392
 C          0.0191051072        3.2976192941        0.2993101411
 C          1.0148121003        2.4530245974       -0.1062789994
 C          0.7456981627        1.1056676172       -0.3729796738
 C         -2.2126374317       -1.2570181656       -0.3517537282
 C         -2.5435784640       -2.5795891526       -0.6110403295
 C         -3.8432874416       -3.0505728686       -0.4639567386
 C         -4.8412401545       -2.2142986996       -0.0550770631
 C         -4.5690668528       -0.8599220064        0.2239208642
 C         -5.5886134692        0.0160838880        0.6475243208
 C         -5.3094832324        1.3248051100        0.9132212144
 C         -4.0153195880        1.8135478836        0.7693358731
 C         -2.9710152716        1.0008815206        0.3561375478
 C         -3.2450509461       -0.3694701589        0.0757456781
 Cl         5.7015820393       -1.8400146710        2.0233491707
 H          6.7362640356        1.4893274560        0.0013534449
 H          5.8570757647        0.2140403239        0.6372795984
 H          5.1066279517        1.6597436155        0.3411169007
 H          6.2064027915       -0.1394289765       -1.7629436468
 H          5.4193008485        1.3989682635       -2.0617112898
 H          4.0934043377       -0.9729706107       -0.6598778207
 H          3.7987576424       -0.4934235184       -2.3428547399
 H          2.2535376201       -1.7686664266       -1.3847219163
 H          0.0108913991       -2.6031797060       -1.1333653744
 H         -2.0367330230        3.5191560439        0.7726120544
 H          0.2418145406        4.3328962448        0.5006911651
 H          2.0214988485        2.8121528549       -0.2321275506
 H         -1.7852192652       -3.2686347252       -0.9349123344
 H         -4.0631697387       -4.0847223894       -0.6750667544
 H         -5.8473579284       -2.5808098603        0.0584303316
 H         -6.5909936947       -0.3611327916        0.7589142840
 H         -6.0968235215        1.9863573695        1.2368599913
 H         -3.8342336080        2.8499916749        0.9880289785
