 xtb: 6.5.1 (fef0646)
          01242310043D

 15 13  0     0  0            999 V2000
    0.5542   -1.2935   -0.6401 N   0  0  0  0  0  0  0  0  0  0  0  0
    1.5268   -0.9501    0.4332 C   0  0  0  0  0  0  0  0  0  0  0  0
    1.6562    0.5560    0.6439 C   0  0  0  0  0  0  0  0  0  0  0  0
    2.2495    1.2748   -0.5568 C   0  0  0  0  0  0  0  0  0  0  0  0
   -2.4800    0.2360    0.1162 Cl  0  0  0  0  0  0  0  0  0  0  0  0
    0.8640   -0.9370   -1.5577 H   0  0  0  0  0  0  0  0  0  0  0  0
   -0.3732   -0.8706   -0.4429 H   0  0  0  0  0  0  0  0  0  0  0  0
    0.4197   -2.3137   -0.7340 H   0  0  0  0  0  0  0  0  0  0  0  0
    2.5078   -1.3764    0.1902 H   0  0  0  0  0  0  0  0  0  0  0  0
    1.2183   -1.4373    1.3672 H   0  0  0  0  0  0  0  0  0  0  0  0
    2.2678    0.7558    1.5352 H   0  0  0  0  0  0  0  0  0  0  0  0
    0.6671    0.9721    0.8769 H   0  0  0  0  0  0  0  0  0  0  0  0
    1.6179    1.1676   -1.4411 H   0  0  0  0  0  0  0  0  0  0  0  0
    3.2325    0.8722   -0.8118 H   0  0  0  0  0  0  0  0  0  0  0  0
    2.3717    2.3460   -0.3747 H   0  0  0  0  0  0  0  0  0  0  0  0
  1  2  1  0  0  0  0
  2  3  1  0  0  0  0
  3  4  1  0  0  0  0
  1  6  1  0  0  0  0
  1  7  1  0  0  0  0
  1  8  1  0  0  0  0
  2  9  1  0  0  0  0
  2 10  1  0  0  0  0
  3 11  1  0  0  0  0
  3 12  1  0  0  0  0
  4 13  1  0  0  0  0
  4 14  1  0  0  0  0
  4 15  1  0  0  0  0
M  END
