26
 xtb: 6.5.1 (fef0646)
N            2.18417654107208       -1.74883442226939       -0.41861296559807
C            1.05154151074665       -2.59693974855454        0.04553302445661
C           -0.25146508208827       -2.28122180298613       -0.68754397800084
C           -0.79433075279094       -0.90838149567729       -0.40232750963540
C           -0.66261507715704        0.06704074229667       -1.29824954564919
C           -1.20428514510923        1.45449992007407       -1.13420145310890
C           -1.66090033131688        1.76782577580391        0.30099847039966
C           -2.37610743707953        0.56689011886972        0.93239559720656
C           -1.47435780010774       -0.67861368430814        0.92166974573199
Cl           1.80045439059420        1.89732451880535        0.67947968231812
H            2.32655481241270       -1.72292617240734       -1.40358487174641
H            3.06942085039378       -1.87875387001206        0.07928464127219
H            1.95373186790880       -0.67113643909056       -0.17359095611766
H            0.92125039945468       -2.44689083739750        1.13370242301491
H            1.37057696769730       -3.59681241630377       -0.10077830274881
H           -0.99275257875230       -3.01853698371974       -0.41390155094039
H           -0.08540715538993       -2.38465291122513       -1.75785748838336
H           -0.14488363247363       -0.15066065993187       -2.21569745763213
H           -2.06873773385297        1.58174986751329       -1.82222921474119
H           -0.46900800185480        2.19011501550869       -1.46861173779542
H           -2.32044720006415        2.65901130074159        0.31419993457136
H           -0.79905288351383        2.03913199518854        0.90527996966761
H           -3.30194186570408        0.35549996890453        0.37372184671261
H           -2.70783356164755        0.80733669284098        1.95405321962792
H           -2.05153399317698       -1.56719518127265        1.19148148959660
H           -0.70831013686566       -0.57217351164259        1.69798653127268
