 xtb: 6.5.1 (fef0646)
          01242317083D

 26 25  0     0  0            999 V2000
    2.1754   -1.6190   -0.3747 N   0  0  0  0  0  0  0  0  0  0  0  0
    1.0799   -2.5341    0.0560 C   0  0  0  0  0  0  0  0  0  0  0  0
   -0.2326   -2.2624   -0.6760 C   0  0  0  0  0  0  0  0  0  0  0  0
   -0.7986   -0.8984   -0.4019 C   0  0  0  0  0  0  0  0  0  0  0  0
   -0.6725    0.0740   -1.3011 C   0  0  0  0  0  0  0  0  0  0  0  0
   -1.2239    1.4585   -1.1414 C   0  0  0  0  0  0  0  0  0  0  0  0
   -1.6761    1.7744    0.2948 C   0  0  0  0  0  0  0  0  0  0  0  0
   -2.3846    0.5720    0.9314 C   0  0  0  0  0  0  0  0  0  0  0  0
   -1.4777   -0.6693    0.9222 C   0  0  0  0  0  0  0  0  0  0  0  0
    1.8136    1.7149    0.6411 Cl  0  0  0  0  0  0  0  0  0  0  0  0
    2.3100   -1.6617   -1.3944 H   0  0  0  0  0  0  0  0  0  0  0  0
    3.0735   -1.8552    0.0720 H   0  0  0  0  0  0  0  0  0  0  0  0
    1.9588   -0.6364   -0.1323 H   0  0  0  0  0  0  0  0  0  0  0  0
    0.9267   -2.4384    1.1373 H   0  0  0  0  0  0  0  0  0  0  0  0
    1.3915   -3.5738   -0.1045 H   0  0  0  0  0  0  0  0  0  0  0  0
   -0.9819   -3.0171   -0.4072 H   0  0  0  0  0  0  0  0  0  0  0  0
   -0.0802   -2.3812   -1.7543 H   0  0  0  0  0  0  0  0  0  0  0  0
   -0.1470   -0.1485   -2.2160 H   0  0  0  0  0  0  0  0  0  0  0  0
   -2.0763    1.5799   -1.8225 H   0  0  0  0  0  0  0  0  0  0  0  0
   -0.4774    2.1926   -1.4738 H   0  0  0  0  0  0  0  0  0  0  0  0
   -2.3262    2.6600    0.3122 H   0  0  0  0  0  0  0  0  0  0  0  0
   -0.8039    2.0426    0.9032 H   0  0  0  0  0  0  0  0  0  0  0  0
   -3.3044    0.3555    0.3740 H   0  0  0  0  0  0  0  0  0  0  0  0
   -2.7102    0.8093    1.9537 H   0  0  0  0  0  0  0  0  0  0  0  0
   -2.0513   -1.5650    1.1925 H   0  0  0  0  0  0  0  0  0  0  0  0
   -0.7087   -0.5684    1.6975 H   0  0  0  0  0  0  0  0  0  0  0  0
  1  2  1  0  0  0  0
  2  3  1  0  0  0  0
  3  4  1  0  0  0  0
  4  5  2  0  0  0  0
  5  6  1  0  0  0  0
  6  7  1  0  0  0  0
  7  8  1  0  0  0  0
  4  9  1  0  0  0  0
  8  9  1  0  0  0  0
  1 11  1  0  0  0  0
  1 12  1  0  0  0  0
  1 13  1  0  0  0  0
  2 14  1  0  0  0  0
  2 15  1  0  0  0  0
  3 16  1  0  0  0  0
  3 17  1  0  0  0  0
  5 18  1  0  0  0  0
  6 19  1  0  0  0  0
  6 20  1  0  0  0  0
  7 21  1  0  0  0  0
  7 22  1  0  0  0  0
  8 23  1  0  0  0  0
  8 24  1  0  0  0  0
  9 25  1  0  0  0  0
  9 26  1  0  0  0  0
M  END
