28
1.688
N           -1.76998  -0.96810  -0.46754
C           -1.33984   0.42678  -0.78148
C           -0.01280   0.48014  -1.54937
C            1.22266   0.74828  -0.66872
C            2.49970   0.89591  -1.53161
C            3.73609   1.20321  -0.67009
C            3.94296   0.11777   0.39996
C            2.68531  -0.03958   1.27151
C            1.44390  -0.33686   0.41121
Cl          -4.72417  -0.89847   1.44187
H           -2.64484  -0.98445   0.08181
H           -1.05291  -1.47403   0.07506
H           -1.93337  -1.50568  -1.33020
H           -1.26038   1.01419   0.14100
H           -2.13590   0.91455  -1.35944
H           -0.05834   1.25056  -2.32956
H            0.13259  -0.46134  -2.08892
H            1.06418   1.70434  -0.14443
H            2.35243   1.66572  -2.30011
H            2.65943  -0.03771  -2.08288
H            3.60440   2.17592  -0.18024
H            4.63206   1.31072  -1.29696
H            4.82258   0.34180   1.01919
H            4.16693  -0.83770  -0.09032
H            2.51986   0.88438   1.83933
H            2.83116  -0.82344   2.02753
H            0.55418  -0.42958   1.04511
H            1.55955  -1.30797  -0.08267
