 xtb: 6.5.1 (fef0646)
          01242317083D

 28 27  0     0  0            999 V2000
   -1.7700   -0.9681   -0.4675 N   0  0  0  0  0  0  0  0  0  0  0  0
   -1.3398    0.4268   -0.7815 C   0  0  0  0  0  0  0  0  0  0  0  0
   -0.0128    0.4801   -1.5494 C   0  0  0  0  0  0  0  0  0  0  0  0
    1.2227    0.7483   -0.6687 C   0  0  0  0  0  0  0  0  0  0  0  0
    2.4997    0.8959   -1.5316 C   0  0  0  0  0  0  0  0  0  0  0  0
    3.7361    1.2032   -0.6701 C   0  0  0  0  0  0  0  0  0  0  0  0
    3.9430    0.1178    0.3999 C   0  0  0  0  0  0  0  0  0  0  0  0
    2.6853   -0.0396    1.2715 C   0  0  0  0  0  0  0  0  0  0  0  0
    1.4439   -0.3369    0.4112 C   0  0  0  0  0  0  0  0  0  0  0  0
   -4.7242   -0.8984    1.4419 Cl  0  0  0  0  0  0  0  0  0  0  0  0
   -2.6448   -0.9844    0.0818 H   0  0  0  0  0  0  0  0  0  0  0  0
   -1.0529   -1.4740    0.0751 H   0  0  0  0  0  0  0  0  0  0  0  0
   -1.9334   -1.5057   -1.3302 H   0  0  0  0  0  0  0  0  0  0  0  0
   -1.2604    1.0142    0.1410 H   0  0  0  0  0  0  0  0  0  0  0  0
   -2.1359    0.9146   -1.3594 H   0  0  0  0  0  0  0  0  0  0  0  0
   -0.0583    1.2506   -2.3296 H   0  0  0  0  0  0  0  0  0  0  0  0
    0.1326   -0.4613   -2.0889 H   0  0  0  0  0  0  0  0  0  0  0  0
    1.0642    1.7043   -0.1444 H   0  0  0  0  0  0  0  0  0  0  0  0
    2.3524    1.6657   -2.3001 H   0  0  0  0  0  0  0  0  0  0  0  0
    2.6594   -0.0377   -2.0829 H   0  0  0  0  0  0  0  0  0  0  0  0
    3.6044    2.1759   -0.1803 H   0  0  0  0  0  0  0  0  0  0  0  0
    4.6321    1.3107   -1.2970 H   0  0  0  0  0  0  0  0  0  0  0  0
    4.8226    0.3418    1.0192 H   0  0  0  0  0  0  0  0  0  0  0  0
    4.1669   -0.8377   -0.0903 H   0  0  0  0  0  0  0  0  0  0  0  0
    2.5199    0.8844    1.8393 H   0  0  0  0  0  0  0  0  0  0  0  0
    2.8312   -0.8235    2.0275 H   0  0  0  0  0  0  0  0  0  0  0  0
    0.5542   -0.4296    1.0451 H   0  0  0  0  0  0  0  0  0  0  0  0
    1.5595   -1.3080   -0.0827 H   0  0  0  0  0  0  0  0  0  0  0  0
  1  2  1  0  0  0  0
  2  3  1  0  0  0  0
  3  4  1  0  0  0  0
  4  5  1  0  0  0  0
  5  6  1  0  0  0  0
  6  7  1  0  0  0  0
  7  8  1  0  0  0  0
  4  9  1  0  0  0  0
  8  9  1  0  0  0  0
  1 11  1  0  0  0  0
  1 12  1  0  0  0  0
  1 13  1  0  0  0  0
  2 14  1  0  0  0  0
  2 15  1  0  0  0  0
  3 16  1  0  0  0  0
  3 17  1  0  0  0  0
  4 18  1  0  0  0  0
  5 19  1  0  0  0  0
  5 20  1  0  0  0  0
  6 21  1  0  0  0  0
  6 22  1  0  0  0  0
  7 23  1  0  0  0  0
  7 24  1  0  0  0  0
  8 25  1  0  0  0  0
  8 26  1  0  0  0  0
  9 27  1  0  0  0  0
  9 28  1  0  0  0  0
M  END
