17
 xtb: 6.5.1 (fef0646)
N           -3.91617711010335        0.85725979893957        0.16769681224374
C           -2.99719448088540       -0.18185935788675       -0.39288045577505
C           -1.63801944128783       -0.20893870722454        0.30524175388147
C           -0.69700294173937       -1.29547223373818       -0.23444710590291
C            0.68820210494395       -1.26118434943154        0.39700244529103
Br           1.65340973224648        0.34757860487003       -0.06804981627869
H           -4.16725123982611        0.66121787791667        1.14458209742852
H           -4.78371148141381        0.92353222070963       -0.39063433943296
H           -3.44376118130824        1.78521909881806        0.13334256149153
H           -2.89155954399400       -0.05068062688073       -1.45910126980388
H           -3.48636122401702       -1.17470190344717       -0.25751492725150
H           -1.75319906717045       -0.32341334921275        1.37072162265343
H           -1.16851724255668        0.78448583684665        0.16099812109782
H           -0.60194190489252       -1.17989218293617       -1.34266360071518
H           -1.16226329839003       -2.27231474576480       -0.10193094504680
H            1.30203317122418       -2.10178622788552        0.03370187077618
H            0.62591034750934       -1.33770095424926        1.46753576205333
