 xtb: 6.5.1 (fef0646)
          01242310103D

 17 16  0     0  0            999 V2000
   -1.3994   -1.6160    0.4292 N   0  0  0  0  0  0  0  0  0  0  0  0
   -2.1870   -0.7102   -0.4535 C   0  0  0  0  0  0  0  0  0  0  0  0
   -2.2578    0.7345    0.0479 C   0  0  0  0  0  0  0  0  0  0  0  0
   -1.0217    1.6048   -0.2424 C   0  0  0  0  0  0  0  0  0  0  0  0
    0.2156    1.2930    0.5886 C   0  0  0  0  0  0  0  0  0  0  0  0
    1.2280   -0.1810   -0.0851 Br  0  0  0  0  0  0  0  0  0  0  0  0
   -0.4069   -1.3074    0.4858 H   0  0  0  0  0  0  0  0  0  0  0  0
   -1.4006   -2.5858    0.0781 H   0  0  0  0  0  0  0  0  0  0  0  0
   -1.7816   -1.6348    1.3861 H   0  0  0  0  0  0  0  0  0  0  0  0
   -3.2008   -1.1253   -0.5424 H   0  0  0  0  0  0  0  0  0  0  0  0
   -1.7737   -0.7337   -1.4694 H   0  0  0  0  0  0  0  0  0  0  0  0
   -2.4553    0.7313    1.1258 H   0  0  0  0  0  0  0  0  0  0  0  0
   -3.1384    1.2180   -0.3980 H   0  0  0  0  0  0  0  0  0  0  0  0
   -1.2918    2.6599   -0.0857 H   0  0  0  0  0  0  0  0  0  0  0  0
   -0.7658    1.5345   -1.3073 H   0  0  0  0  0  0  0  0  0  0  0  0
   -0.0391    1.0972    1.6318 H   0  0  0  0  0  0  0  0  0  0  0  0
    0.9204    2.1295    0.5850 H   0  0  0  0  0  0  0  0  0  0  0  0
  1  2  1  0  0  0  0
  2  3  1  0  0  0  0
  3  4  1  0  0  0  0
  4  5  1  0  0  0  0
  5  6  1  0  0  0  0
  1  7  1  0  0  0  0
  1  8  1  0  0  0  0
  1  9  1  0  0  0  0
  2 10  1  0  0  0  0
  2 11  1  0  0  0  0
  3 12  1  0  0  0  0
  3 13  1  0  0  0  0
  4 14  1  0  0  0  0
  4 15  1  0  0  0  0
  5 16  1  0  0  0  0
  5 17  1  0  0  0  0
M  CHG  1   1   1
M  END
