  39

 N         -7.8500059325        1.3301505262        0.4292738126
 C         -7.9605625221       -0.0702239984        0.9323057017
 C         -7.3427358580       -1.0999871041       -0.0172542433
 C         -5.8552809273       -1.0502012487       -0.0746088740
 C         -5.0247901033       -2.1157395658       -0.2794621046
 C         -3.6536070140       -1.7879897156       -0.2927908547
 C         -3.3952494014       -0.4492915210       -0.0990375320
 C         -2.1134312567        0.1605780939       -0.0508936200
 C         -1.8643804639        1.5137767713        0.1174425097
 C         -0.5137963727        1.8447384269        0.1493792007
 C          0.3398695728        0.7574458289        0.0103966500
 C          1.7542880365        0.7856285111        0.0293758167
 C          2.5597149658        1.9084392931        0.1733990225
 C          3.9230286223        1.6323574958        0.1753283049
 C          4.2304518789        0.2880525536        0.0335319437
 C          5.5369195745       -0.2694412983        0.0179569097
 C          5.8464811426       -1.6034774029       -0.1249816589
 C          7.2285920077       -1.8714210002       -0.0981848350
 C          7.9949790948       -0.7602124300        0.0626711767
 S          7.0149028368        0.6454272318        0.1836685591
 S          2.7619422138       -0.6270626831       -0.1191246778
 S         -0.6044492720       -0.6914237623       -0.1862660385
 S         -4.9090310750        0.3879758587        0.0920459196
 H         -8.2266452289        2.0091550327        1.1014660120
 H         -8.3552050693        1.4423055064       -0.4574037808
 H         -6.8660786674        1.5630785880        0.2567773270
 H         -9.0184420350       -0.3006952924        1.1069585398
 H         -7.4738984393       -0.1443466004        1.9114648245
 H         -7.7401686833       -0.9521906388       -1.0260696580
 H         -7.6470814513       -2.1104024676        0.2775108166
 H         -5.3906865459       -3.1211601948       -0.4188493162
 H         -2.8694106367       -2.5144632014       -0.4368715003
 H         -2.6565593032        2.2383330337        0.2204912542
 H         -0.1604687013        2.8543465710        0.2825562685
 H          2.1624496017        2.9049442034        0.2786152264
 H          4.6825191234        2.3902622425        0.2836817278
 H          5.0936076507       -2.3664323935       -0.2443149967
 H          7.6386586470       -2.8657307097       -0.1952768751
 H          9.0671368003       -0.7444051591        0.1105497613
          39
        -62.25829427
 N         -7.6062200190       -2.1208232548       -0.1240669120
 C         -7.9891652604       -0.8847147228        0.6193951152
 C         -7.5573600796        0.4006120420       -0.0914662199
 C         -6.0868754198        0.6356045082       -0.0682932339
 C         -5.4710173915        1.8550124939       -0.0440491664
 C         -4.0625777863        1.7927965537       -0.0337527424
 C         -3.5573443175        0.5118617156       -0.0525812812
 C         -2.1837096596        0.1511015851       -0.0445322623
 C         -1.6833918022       -1.1419674087       -0.0639768344
 C         -0.2944801500       -1.2144863719       -0.0501606872
 C          0.3365971263        0.0215183461       -0.0194588948
 C          1.7333850897        0.2398645840       -0.0012058689
 C          2.3642137788        1.4759915726        0.0302184940
 C          3.7531753255        1.4034207875        0.0401050781
 C          4.2533667337        0.1102817035        0.0162607047
 C          5.6271972043       -0.2507491232        0.0166543598
 C          6.1275540998       -1.5334112055       -0.0041910079
 C          7.5343217550       -1.5939362218        0.0000131442
 C          8.1315528629       -0.3729937178        0.0247291584
 S          6.9568700270        0.8806855265        0.0434806387
 S          2.9348180459       -1.0204979221       -0.0158660064
 S         -0.8637792093        1.2817144837       -0.0074469746
 S         -4.8872871738       -0.6104023790       -0.0872465285
 H         -6.5929450103       -2.1356898828       -0.2797533719
 H         -8.0618920660       -2.1509033570       -1.0435853957
 H         -7.8631077296       -2.9728925128        0.3895915399
 H         -7.5446500220       -0.9100070174        1.6207975707
 H         -9.0748848995       -0.8876069309        0.7742967185
 H         -8.0566352745        1.2651736331        0.3605485728
 H         -7.8938522146        0.3734646673       -1.1323449502
 H         -6.0186724356        2.7846226867       -0.0346096349
 H         -3.4295909567        2.6659739709       -0.0125673063
 H         -2.3236067990       -2.0095387747       -0.0877215357
 H          0.2525584932       -2.1434932025       -0.0623357378
 H          1.8169354606        2.4047995829        0.0451869960
 H          4.3932600979        2.2710318236        0.0630382253
 H          5.4933145946       -2.4055702198       -0.0217279004
 H          8.0845821137       -2.5230562566       -0.0153982392
 H          9.1901315756       -0.1959033229        0.0326868053
          39
        -62.25847605
 N          7.5947145165       -2.1206949233        0.0922395617
 C          7.9915763618       -0.8750864539       -0.6275941464
 C          7.5556902843        0.4017792877        0.0959054195
 C          6.0852989144        0.6370745190        0.0700335492
 C          5.4688153217        1.8563690604        0.0492067315
 C          4.0603420295        1.7932218670        0.0392325151
 C          3.5563639703        0.5114950507        0.0555633137
 C          2.1837559416        0.1473680347        0.0507970561
 C          1.6848159027       -1.1464578754        0.0739241354
 C          0.2957909438       -1.2198481362        0.0619970212
 C         -0.3356444236        0.0162086298        0.0287144537
 C         -1.7318812079        0.2371284349        0.0093445407
 C         -2.3609491318        1.4742450693       -0.0284552413
 C         -3.7500230444        1.4034069280       -0.0411025938
 C         -4.2517219644        0.1108488962       -0.0127996905
 C         -5.6257831720       -0.2491102050       -0.0168528578
 C         -6.1278327831       -1.5308780968        0.0186114115
 C         -7.5346370209       -1.5897163100        0.0050409579
 C         -8.1301200646       -0.3684920186       -0.0405482175
 S         -6.9537566070        0.8833674705       -0.0679107433
 S         -2.9348254734       -1.0212677946        0.0295249584
 S          0.8635392215        1.2768454921        0.0137881206
 S          4.8867665864       -0.6096724317        0.0825866420
 H          6.5782132113       -2.1405703267        0.2241601728
 H          8.0285733679       -2.1600064364        1.0217872372
 H          7.8657131536       -2.9659917698       -0.4253204956
 H          7.5605667104       -0.8841758021       -1.6351606470
 H          9.0792870439       -0.8798967695       -0.7677944645
 H          8.0566938465        1.2715251147       -0.3440247793
 H          7.8877137135        0.3625188390        1.1378755893
 H          6.0160315256        2.7862203846        0.0442507221
 H          3.4267657282        2.6660338510        0.0221342857
 H          2.3258704898       -2.0133119046        0.0987077624
 H         -0.2508767714       -2.1489838668        0.0760505333
 H         -1.8124698984        2.4022579180       -0.0467269268
 H         -4.3890401020        2.2715840444       -0.0690276082
 H         -5.4950482512       -2.4035048407        0.0548980832
 H         -8.0859464260       -2.5179876858        0.0292865869
 H         -9.1885204395       -0.1909351250       -0.0570916817
          39
        -62.25862735
 N         -7.6566146305       -1.8309608959       -1.0611736675
 C         -8.0990161105       -0.4143672738       -0.9173698727
 C         -7.5403544081        0.2428357946        0.3450651459
 C         -6.0762346486        0.5001790199        0.2685015833
 C         -5.4891961244        1.7172910946        0.0707199624
 C         -4.0817446317        1.6805128456        0.0465562607
 C         -3.5538792667        0.4214771639        0.2208917469
 C         -2.1738610517        0.0859860722        0.2385068276
 C         -1.6484364650       -1.1846073136        0.4182711699
 C         -0.2591399098       -1.2359376901        0.3790413020
 C          0.3469001046       -0.0050658847        0.1679082046
 C          1.7376873424        0.2310021990        0.0741470168
 C          2.3454552429        1.4625181824       -0.1283395223
 C          3.7337737428        1.4056681763       -0.1923900230
 C          4.2561130265        0.1298958074       -0.0420756063
 C          5.6331585369       -0.2170033750       -0.0750385581
 C          6.1515224803       -1.4842416804        0.0715390574
 C          7.5562713765       -1.5360083109       -0.0093981208
 C          8.1342574256       -0.3231850190       -0.2166269629
 S          6.9435708427        0.9117573685       -0.3144615444
 S          2.9602263879       -1.0031435323        0.1920355291
 S         -0.8770957713        1.2243467470        0.0282588017
 S         -4.8547125486       -0.7205768414        0.4097847982
 H         -6.6347486284       -1.8770528469       -0.9782505138
 H         -7.9291271088       -2.2326217948       -1.9662410700
 H         -8.0520944080       -2.4165316152       -0.3157446033
 H         -9.1950764005       -0.3804093708       -0.9187309711
 H         -7.7796203860        0.1597417064       -1.7946511512
 H         -7.7423563040       -0.3961076869        1.2103684762
 H         -8.0574514037        1.1876819033        0.5458937694
 H         -6.0566875409        2.6267643820       -0.0505194115
 H         -3.4659496695        2.5545244590       -0.0956330792
 H         -2.2713384338       -2.0518307740        0.5699154862
 H          0.3059122434       -2.1464935453        0.4976615450
 H          1.7822626556        2.3760992868       -0.2314253420
 H          4.3574085603        2.2713643122       -0.3492015294
 H          5.5316342410       -2.3523148489        0.2309459415
 H          8.1183472962       -2.4534269709        0.0836231836
 H          9.1882142653       -0.1426745460       -0.3094194985
