22
 xtb: 6.5.1 (fef0646)
N           -1.40645763810318       -1.27925999704727        1.26034113480410
C           -0.72952056019711       -2.23525154023409        0.32802163707035
C           -0.07921240581394       -1.51064673917999       -0.85278564799727
C            0.91647798246062       -0.47275021277362       -0.42639327924867
C            2.24279832194875       -0.81127146140702       -0.20431435392851
C            3.15077886538254        0.13928915858163        0.21917215359951
C            2.74158993036510        1.44009211857018        0.43295481931763
C            1.42206802909373        1.78776140509437        0.22538044226941
C            0.51736222542151        0.83620446632270       -0.19885111668031
Cl          -2.98523829606064        0.96820327460649       -0.39640417361799
H           -1.88150089066058       -1.86159627186367        2.03262184039529
H           -1.96861022092122       -0.68722390321313        0.83299759862314
H           -0.62693502586903       -0.78794714843312        1.80340907286776
H           -1.43030309400064       -2.99784923397649       -0.03086791839298
H            0.08288075664724       -2.85782960887994        0.83145871465254
H           -0.88825081165396       -1.01847350255184       -1.41528256207133
H            0.38598898879253       -2.20042188677955       -1.55310103780922
H            2.54758006374931       -1.83333034312754       -0.35509731595496
H            4.17314437235195       -0.14401397997380        0.39358265626383
H            3.44966906490230        2.17730813940851        0.76479703904559
H            1.10002657084041        2.80358439270701        0.39176718846227
H           -0.51959670854063        1.10550042140353       -0.34965137876828
