 xtb: 6.5.1 (fef0646)
          02032320183D

 22 21  0     0  0            999 V2000
   -1.3108   -1.3805    1.3373 N   0  0  0  0  0  0  0  0  0  0  0  0
   -0.6801   -2.2825    0.3314 C   0  0  0  0  0  0  0  0  0  0  0  0
   -0.0928   -1.5069   -0.8463 C   0  0  0  0  0  0  0  0  0  0  0  0
    0.9070   -0.4716   -0.4220 C   0  0  0  0  0  0  0  0  0  0  0  0
    2.2316   -0.8160   -0.1955 C   0  0  0  0  0  0  0  0  0  0  0  0
    3.1427    0.1316    0.2272 C   0  0  0  0  0  0  0  0  0  0  0  0
    2.7383    1.4351    0.4346 C   0  0  0  0  0  0  0  0  0  0  0  0
    1.4211    1.7885    0.2218 C   0  0  0  0  0  0  0  0  0  0  0  0
    0.5119    0.8397   -0.2006 C   0  0  0  0  0  0  0  0  0  0  0  0
   -3.0593    1.0836   -0.4734 Cl  0  0  0  0  0  0  0  0  0  0  0  0
   -1.8187   -1.8998    2.0717 H   0  0  0  0  0  0  0  0  0  0  0  0
   -1.9734   -0.7383    0.8766 H   0  0  0  0  0  0  0  0  0  0  0  0
   -0.5998   -0.7948    1.7968 H   0  0  0  0  0  0  0  0  0  0  0  0
   -1.4184   -3.0108   -0.0261 H   0  0  0  0  0  0  0  0  0  0  0  0
    0.1062   -2.8729    0.8162 H   0  0  0  0  0  0  0  0  0  0  0  0
   -0.8999   -1.0145   -1.3996 H   0  0  0  0  0  0  0  0  0  0  0  0
    0.3766   -2.1905   -1.5634 H   0  0  0  0  0  0  0  0  0  0  0  0
    2.5429   -1.8354   -0.3511 H   0  0  0  0  0  0  0  0  0  0  0  0
    4.1702   -0.1476    0.3974 H   0  0  0  0  0  0  0  0  0  0  0  0
    3.4495    2.1752    0.7652 H   0  0  0  0  0  0  0  0  0  0  0  0
    1.1012    2.8045    0.3891 H   0  0  0  0  0  0  0  0  0  0  0  0
   -0.5209    1.1076   -0.3514 H   0  0  0  0  0  0  0  0  0  0  0  0
  1  2  1  0  0  0  0
  2  3  1  0  0  0  0
  3  4  1  0  0  0  0
  4  5  4  0  0  0  0
  5  6  4  0  0  0  0
  6  7  4  0  0  0  0
  7  8  4  0  0  0  0
  4  9  4  0  0  0  0
  8  9  4  0  0  0  0
  1 11  1  0  0  0  0
  1 12  1  0  0  0  0
  1 13  1  0  0  0  0
  2 14  1  0  0  0  0
  2 15  1  0  0  0  0
  3 16  1  0  0  0  0
  3 17  1  0  0  0  0
  5 18  1  0  0  0  0
  6 19  1  0  0  0  0
  7 20  1  0  0  0  0
  8 21  1  0  0  0  0
  9 22  1  0  0  0  0
M  END
