13

N          1.01607       -0.04008        0.03304
C          2.50810       -0.05628        0.05773
C          3.01829       -0.92515        1.20629
C          2.51355       -2.34967        1.04384
C          2.08058       -3.57161        0.90449
H          0.65827        0.53197       -0.74234
H          0.62084        0.33000        0.90713
H          0.64279       -0.99264       -0.09153
H          2.83478        0.98162        0.16571
H          2.82751       -0.44108       -0.91648
H          2.67441       -0.53051        2.16886
H          4.11332       -0.92939        1.21388
H          1.75074       -4.58315        0.80748
