18
 xtb: 6.5.1 (fef0646)
N           -1.70417323719853        1.44648476920331        0.84350268456816
C           -0.66716249754862        2.06597219245352       -0.03810156232900
C            0.39855640288543        1.06102296902325       -0.46846945935835
C            1.25382186538937        0.55454231309022        0.68556978465681
C            2.28253019198731       -0.44742999915688        0.23848248130613
O            2.82701444345634       -0.26056154748880       -0.98605742519902
O            2.59457950287011       -1.35888337195689        0.97508389049643
Cl          -2.83967656584558       -1.20763168844736       -0.50163798852976
H           -2.08806830998855        0.68632082333672        0.48826131076859
H           -2.41054198841535        2.21260439427573        1.09018101107855
H           -1.23846391816258        1.27406040611505        1.79593833573531
H           -0.13823993043813        2.95394804176969        0.43747621299898
H           -1.14651671694408        2.50805884544249       -0.91819937421215
H            1.05487047488268        1.47801460627453       -1.23752356297799
H           -0.10850415341226        0.21787474635242       -0.93890568383958
H            0.62481109481974        0.08317576428819        1.44806016315757
H            1.75845179478619        1.38792360271785        1.18349332904617
H            3.46929788352845       -0.96034470161416       -1.15349580591537
