 xtb: 6.5.1 (fef0646)
          02032320293D

 18 16  0     0  0            999 V2000
   -1.8747    1.8864    0.2403 N   0  0  0  0  0  0  0  0  0  0  0  0
   -0.6248    1.7732   -0.5631 C   0  0  0  0  0  0  0  0  0  0  0  0
    0.3487    0.7588    0.0225 C   0  0  0  0  0  0  0  0  0  0  0  0
    1.6276    0.6123   -0.7922 C   0  0  0  0  0  0  0  0  0  0  0  0
    2.5587   -0.3960   -0.1785 C   0  0  0  0  0  0  0  0  0  0  0  0
    3.5325    0.0955    0.6210 O   0  0  0  0  0  0  0  0  0  0  0  0
    2.3962   -1.5776   -0.3919 O   0  0  0  0  0  0  0  0  0  0  0  0
   -3.2735   -1.3493    0.3551 Cl  0  0  0  0  0  0  0  0  0  0  0  0
   -2.3457    0.9685    0.2995 H   0  0  0  0  0  0  0  0  0  0  0  0
   -2.5372    2.5563   -0.1701 H   0  0  0  0  0  0  0  0  0  0  0  0
   -1.6677    2.1890    1.1998 H   0  0  0  0  0  0  0  0  0  0  0  0
   -0.1414    2.7542   -0.6345 H   0  0  0  0  0  0  0  0  0  0  0  0
   -0.8746    1.4929   -1.5928 H   0  0  0  0  0  0  0  0  0  0  0  0
   -0.1414   -0.2173    0.1073 H   0  0  0  0  0  0  0  0  0  0  0  0
    0.6020    1.0409    1.0501 H   0  0  0  0  0  0  0  0  0  0  0  0
    2.1441    1.5737   -0.8664 H   0  0  0  0  0  0  0  0  0  0  0  0
    1.3949    0.3058   -1.8159 H   0  0  0  0  0  0  0  0  0  0  0  0
    4.0554   -0.6413    0.9662 H   0  0  0  0  0  0  0  0  0  0  0  0
  1  2  1  0  0  0  0
  2  3  1  0  0  0  0
  3  4  1  0  0  0  0
  4  5  1  0  0  0  0
  5  6  1  0  0  0  0
  5  7  2  0  0  0  0
  1  9  1  0  0  0  0
  1 10  1  0  0  0  0
  1 11  1  0  0  0  0
  2 12  1  0  0  0  0
  2 13  1  0  0  0  0
  3 14  1  0  0  0  0
  3 15  1  0  0  0  0
  4 16  1  0  0  0  0
  4 17  1  0  0  0  0
  6 18  1  0  0  0  0
M  END
