  18

 N         -4.2281470891        1.6048616395        0.1159931211
 C         -2.8196790179        1.6882450587       -0.3680021758
 C         -1.8929751978        0.7505120596        0.3952824135
 C         -0.4476621925        0.7943738346       -0.1091840853
 C          0.4746740570       -0.1509141352        0.6401767807
 I          2.4989639305       -0.1572326515       -0.0422141938
 Cl        -5.0810928864       -1.7878552592       -0.1631312874
 H         -4.8605946070        2.2100595953       -0.4244213533
 H         -4.2940952948        1.8812898152        1.1040907881
 H         -4.5736181474        0.6334435726        0.0413812724
 H         -2.4566762352        2.7195337898       -0.2854705925
 H         -2.7828333138        1.4509830160       -1.4378210888
 H         -2.2746945782       -0.2747545793        0.3282317567
 H         -1.9195093532        0.9949991112        1.4630875874
 H         -0.0597885501        1.8185341105       -0.0369723825
 H         -0.4220854223        0.5555430491       -1.1800519377
 H          0.1193511587       -1.1805315088        0.5648730275
 H          0.5043480110        0.0956327126        1.7033799296
          18
        -25.49527734
 N         -3.0413948335       -1.8055504719       -0.5111312795
 C         -1.5859722058       -2.1289076587       -0.5417900935
 C         -0.8867017629       -1.8457862073        0.7842893630
 C         -0.9316890474       -0.3767449132        1.2127511100
 C         -0.2494483689        0.5655023446        0.2335769689
 I          1.8274680224        0.1959909685       -0.0966546166
 Cl        -3.6065942077        1.6572907550       -0.0813407850
 H         -3.1967053434       -0.7968060146       -0.3646518685
 H         -3.5109318773       -2.3044627714        0.2558235301
 H         -3.5121094444       -2.0648944205       -1.3921881302
 H         -1.1032042610       -1.5662341985       -1.3487218811
 H         -1.4583672053       -3.1844035970       -0.8133092914
 H          0.1601305843       -2.1680882240        0.7250254268
 H         -1.3369595988       -2.4716186295        1.5644630513
 H         -0.4556568809       -0.2668165005        2.1966209760
 H         -1.9747681583       -0.0696730563        1.3640295398
 H         -0.3132598147        1.6032716351        0.5696456865
 H         -0.7240015566        0.5251869443       -0.7481668874
          18
        -25.49536129
 N         -3.0341663531       -1.8149940474       -0.5129167504
 C         -1.5765992760       -2.1295863821       -0.5292892936
 C         -0.8890995995       -1.8256197912        0.7983449004
 C         -0.9369228272       -0.3497392560        1.2026130838
 C         -0.2453721847        0.5761190258        0.2143014012
 I          1.8324108203        0.1951691506       -0.0956751064
 Cl        -3.6300868891        1.6418995147       -0.0826854357
 H         -3.5070303061       -2.3125360940        0.2526869492
 H         -3.4947053190       -2.0809811575       -1.3939900153
 H         -3.1972536688       -0.8037399708       -0.3716497777
 H         -1.0913326120       -1.5738634283       -1.3394900043
 H         -1.4406248245       -3.1875632739       -0.7866394519
 H          0.1581072669       -2.1490574934        0.7536639235
 H         -1.3467887174       -2.4387036603        1.5842846420
 H         -0.4694952140       -0.2242426010        2.1887575492
 H         -1.9810295726       -0.0396115534        1.3396528402
 H         -0.3084949546        1.6190195037        0.5342543590
 H         -0.7129544464        0.5222690054       -0.7701305079
