  18

 N          1.2678287517       -0.2443095178        0.3969937852
 C          2.7371153292       -0.1961897413        0.2612434462
 C          3.1304071225       -0.4871957204       -1.1822196240
 C          4.6361384453       -0.3198472514       -1.3903590115
 C          4.9877625422       -0.5658137688       -2.8432428509
 I          7.1268175729       -0.3733392030       -3.2097921726
 Cl         0.0998161259        1.6585590361       -1.6934262712
 H          0.9695117655        0.0145624759        1.3397664471
 H          0.9077373897       -1.1730519284        0.1627621623
 H          0.8333720094        0.4324528339       -0.2829073965
 H          3.1935942669       -0.9222017840        0.9351420776
 H          3.0754564314        0.8041862927        0.5293611642
 H          2.5879108477        0.2020770347       -1.8322314568
 H          2.8420706367       -1.5034425353       -1.4534978536
 H          5.1783434987       -1.0226878474       -0.7544596480
 H          4.9348859130        0.6914216756       -1.1082504048
 H          4.5074044629        0.1560092750       -3.4985814527
 H          4.7273868883       -1.5729693261       -3.1581209400
