 xtb: 6.5.1 (fef0646)
          01242310103D

 18 16  0     0  0            999 V2000
    0.4385   -1.8907   -0.3576 N   0  0  0  0  0  0  0  0  0  0  0  0
   -0.8142   -1.4057    0.2845 C   0  0  0  0  0  0  0  0  0  0  0  0
   -1.2636   -0.0633   -0.2781 C   0  0  0  0  0  0  0  0  0  0  0  0
   -2.5453    0.4607    0.3707 C   0  0  0  0  0  0  0  0  0  0  0  0
   -2.9859    1.8010   -0.1970 C   0  0  0  0  0  0  0  0  0  0  0  0
    2.8851    0.5423    0.1061 Cl  0  0  0  0  0  0  0  0  0  0  0  0
    1.2022   -1.2057   -0.2298 H   0  0  0  0  0  0  0  0  0  0  0  0
    0.3094   -2.0168   -1.3739 H   0  0  0  0  0  0  0  0  0  0  0  0
    0.7576   -2.7969    0.0348 H   0  0  0  0  0  0  0  0  0  0  0  0
   -0.6666   -1.3227    1.3680 H   0  0  0  0  0  0  0  0  0  0  0  0
   -1.6100   -2.1493    0.1547 H   0  0  0  0  0  0  0  0  0  0  0  0
   -1.4055   -0.1491   -1.3623 H   0  0  0  0  0  0  0  0  0  0  0  0
   -0.4594    0.6730   -0.1557 H   0  0  0  0  0  0  0  0  0  0  0  0
   -2.3961    0.5401    1.4559 H   0  0  0  0  0  0  0  0  0  0  0  0
   -3.3441   -0.2832    0.2484 H   0  0  0  0  0  0  0  0  0  0  0  0
   -2.2170    2.5636   -0.0524 H   0  0  0  0  0  0  0  0  0  0  0  0
   -3.9027    2.1658    0.2734 H   0  0  0  0  0  0  0  0  0  0  0  0
   -3.1729    1.7332   -1.2711 H   0  0  0  0  0  0  0  0  0  0  0  0
  1  2  1  0  0  0  0
  2  3  1  0  0  0  0
  3  4  1  0  0  0  0
  4  5  1  0  0  0  0
  1  7  1  0  0  0  0
  1  8  1  0  0  0  0
  1  9  1  0  0  0  0
  2 10  1  0  0  0  0
  2 11  1  0  0  0  0
  3 12  1  0  0  0  0
  3 13  1  0  0  0  0
  4 14  1  0  0  0  0
  4 15  1  0  0  0  0
  5 16  1  0  0  0  0
  5 17  1  0  0  0  0
  5 18  1  0  0  0  0
M  END
