18
2.308
N           -1.52543   1.01954   0.53554
C           -1.33753   0.05110  -0.58368
C           -0.67497  -1.25694  -0.15576
C            0.64017  -1.08297   0.60671
C            1.66617  -0.23832  -0.14026
O            1.22241   1.09453  -0.29152
H           -2.05192   1.84498   0.23065
H           -0.60282   1.34065   0.86360
H           -2.02522   0.58707   1.31938
H           -0.72358   0.53596  -1.35292
H           -2.30776  -0.15163  -1.05412
H           -0.49621  -1.87918  -1.04117
H           -1.37866  -1.82883   0.46090
H            1.06559  -2.06603   0.84514
H            0.44169  -0.60659   1.57203
H            1.85260  -0.65665  -1.13765
H            2.62194  -0.22363   0.40077
H            1.89702   1.67625  -0.66825
