17
 xtb: 6.5.1 (fef0646)
N           -4.19376301331811       -0.00524668457383        0.51961045938042
C           -3.00257066223175       -0.83494816469890        0.12568680188258
C           -2.09485582487812       -0.14104335965525       -0.89452116061363
C           -1.41016096163421        1.12839238449075       -0.36518037164704
C           -0.39274256559582        0.86703360659619        0.73299624297410
I            1.38708639274190       -0.08284410852414       -0.05065414107276
H           -4.71759313697464        0.20304604193544       -0.24077538914782
H           -3.85369426181019        0.80110479672517        1.04178052435520
H           -4.70777484262969       -0.60529897500131        1.20688929500986
H           -3.28832859571591       -1.79010909061489       -0.31604798849407
H           -2.33606149156763       -1.11270599189732        0.97772068409172
H           -2.70984364929688        0.15114981367716       -1.78499893336683
H           -1.31320554257252       -0.77545930685097       -1.31627736258229
H           -2.17771395896727        1.86748911992337       -0.02803237330861
H           -0.92067483219475        1.70599322547375       -1.22117593005253
H           -0.78982560252161        0.36237734618728        1.53579105918282
H            0.01450320294901        1.86631613987987        1.10652816543576
