40
 xtb: 6.5.1 (fef0646)
N           -6.92187169215457        0.13111876339469        1.91324946489768
C           -7.53675797823109       -0.87736811417699        1.00705518648071
C           -6.92146365926766       -0.83201615059725       -0.38874203591161
C           -5.44442006994297       -1.01087887414745       -0.36487715544219
C           -4.79591141229142       -2.20506641050392       -0.36897574821890
C           -3.38263441011098       -2.08591880538312       -0.31882060992367
C           -2.94286404531464       -0.79300963096497       -0.27441400415845
C           -1.56340039261593       -0.37887054021922       -0.22012675613019
C           -1.12316620741569        0.91784883123650       -0.21347040702540
C            0.28405517165751        1.04447182201591       -0.15853157770158
C            0.94711069315921       -0.15430791383151       -0.12111198053284
C            2.37586405025350       -0.31808729058016       -0.05973513472010
C            3.04020860884330       -1.51635377913279       -0.02573893394156
C            4.44716798427031       -1.38834932297946        0.03043948907365
C            4.88571162474999       -0.09112280301958        0.04154946510970
C            6.26461880542217        0.32713922443666        0.09606444936149
C            6.70149610009680        1.62246408965760        0.13001660860694
C            8.11618621429619        1.74683934887814        0.18680266777132
C            8.75825287620159        0.55501056746217        0.19583426630002
S            7.63249325216190       -0.75487951269107        0.14027226544762
S            3.52450402626748        0.99217868928076       -0.03659257170769
S           -0.20408512426059       -1.45901451833277       -0.14403256687468
S           -4.30265256670064        0.30181088918655       -0.28721970199049
Cl          -6.59291210294109        2.74968572704824       -0.34998430570754
H           -6.94172169132183        1.08556375438488        1.42064367043855
H           -5.93488045554614       -0.05686040300897        2.07024156138846
H           -7.40821502140260        0.24933425371764        2.79931121049713
H           -8.62302035486581       -0.70054621605385        0.94147964903763
H           -7.41022206938960       -1.85453823937034        1.45199257705729
H           -7.14627585825024        0.11566320305076       -0.88027381327056
H           -7.36722011092949       -1.61255036727331       -1.03017091257354
H           -5.31132952804081       -3.15848737854649       -0.36983201360414
H           -2.71068436070455       -2.93575337196369       -0.27920184193851
H           -1.79822242413784        1.75600298641614       -0.20953533919782
H            0.79591193519916        1.99026618272772       -0.10962001834545
H            2.53197494198554       -2.46751053320480       -0.07913710323704
H            5.12571064114608       -2.22961701583170        0.02280870912067
H            6.02541813311006        2.46640113124354        0.12412555031352
H            8.62272204589164        2.70305785864892        0.22644542252055
H            9.82386912206130        0.42615391540584        0.23148940852061
