  19

 N          1.0457900000        0.0319500000        0.5111900000
 C          2.5111500000        0.0351100000        0.4100400000
 C          2.9898000000       -1.3651800000        0.0530400000
 C          4.5083800000       -1.4062900000       -0.0736200000
 C          5.0069400000       -2.7998400000       -0.4281300000
 O          6.4225200000       -2.7748900000       -0.5290700000
 Cl         0.3586100000        0.1457900000       -2.3893300000
 H          0.6630400000        0.9749800000        0.6922500000
 H          0.6255900000       -0.6586800000        1.1210200000
 H          0.6719000000       -0.1367900000       -0.4720600000
 H          2.9029600000        0.3598700000        1.3762600000
 H          2.7952800000        0.7740800000       -0.3527400000
 H          2.5429500000       -1.6956900000       -0.8921800000
 H          2.6604300000       -2.0740400000        0.8232800000
 H          4.9753900000       -1.0806900000        0.8646100000
 H          4.8437200000       -0.6950800000       -0.8383500000
 H          4.5890300000       -3.1492100000       -1.3781100000
 H          4.7360800000       -3.5185000000        0.3515700000
 H          6.6506600000       -2.2498700000       -1.3157300000
