18
0.712
N           -2.27657  -2.05304  -0.02353
C           -1.22124  -2.47078  -0.99090
C            0.08857  -1.70971  -0.80259
C           -0.02011  -0.22316  -1.13784
C            1.28919   0.51902  -0.93271
Br           1.87052   0.52291   0.90787
Cl          -3.16938   1.34454  -0.47581
H           -1.94619  -2.15903   0.94750
H           -3.13537  -2.61009  -0.12775
H           -2.53225  -1.06296  -0.15467
H           -1.58544  -2.33007  -2.01517
H           -1.04747  -3.54914  -0.88720
H            0.87923  -2.15895  -1.41595
H            0.42951  -1.82272   0.23229
H           -0.79115   0.23871  -0.51078
H           -0.37110  -0.10408  -2.17128
H            1.21355   1.56465  -1.23984
H            2.09101   0.06753  -1.51982
