22
0.0
N           -3.19820   0.87665   1.51471
C           -3.19402   1.96459   0.49570
C           -2.51796   1.53278  -0.80404
C           -1.11233   1.05311  -0.59823
C           -0.85209  -0.29343  -0.38993
C            0.43860  -0.73523  -0.16530
C            1.48336   0.16392  -0.14073
Br           3.25859  -0.44431   0.16921
C            1.23633   1.50572  -0.33873
C           -0.05460   1.94960  -0.56309
Cl          -3.92560  -2.11766  -0.19561
H           -3.76218   1.11489   2.34241
H           -2.23819   0.67074   1.83230
H           -3.57146   0.00603   1.10742
H           -2.68241   2.84271   0.90640
H           -4.22344   2.28716   0.29696
H           -2.51736   2.35388  -1.52982
H           -3.10071   0.73158  -1.27152
H           -1.67113  -0.99311  -0.39503
H            0.64216  -1.78109  -0.00398
H            2.06039   2.19970  -0.31416
H           -0.24815   2.99840  -0.71089
