22
 xtb: 6.5.1 (fef0646)
N           -3.24972623941560        0.74249158554566        1.44526599310504
C           -3.21799256088885        1.90098651917302        0.49772726406746
C           -2.51024230052382        1.54368684593067       -0.81113874315169
C           -1.10668823685611        1.05987454521674       -0.60371398581055
C           -0.84973108630420       -0.28570090564862       -0.38521536841184
C            0.43849493683209       -0.73086602301654       -0.15634935681636
C            1.48651553366134        0.16461065119367       -0.14217333874083
Br           3.26292601544749       -0.44943023293399        0.16925159053639
C            1.24423343237618        1.50493101189186       -0.35319741421772
C           -0.04573487929462        1.95204649702785       -0.57736490099611
Cl          -3.89878941268878       -1.98375982704924       -0.12488055152695
H           -3.80832515182255        1.05068551827526        2.30938899442852
H           -2.25808733771049        0.65300167879301        1.84259103551502
H           -3.54991830314538       -0.03795937102569        1.05914171837658
H           -2.69400482208712        2.81893152629662        0.92427575666402
H           -4.22912550088557        2.27056617552803        0.29384901986034
H           -2.51235144348788        2.36750956660075       -1.51989713591426
H           -3.09518418019718        0.74085383258960       -1.28809669948122
H           -1.67096431623369       -0.99000432511776       -0.39165624558176
H            0.64093747973974       -1.77959353815481        0.00177894746097
H            2.06359460124117        2.19847754635711       -0.32116602541374
H           -0.24438318759827        2.99892808088079       -0.71752071419673
