 xtb: 6.5.1 (fef0646)
          02032318583D

 22 21  0     0  0            999 V2000
   -3.1982    0.8767    1.5147 N   0  0  0  0  0  0  0  0  0  0  0  0
   -3.1940    1.9646    0.4957 C   0  0  0  0  0  0  0  0  0  0  0  0
   -2.5180    1.5328   -0.8040 C   0  0  0  0  0  0  0  0  0  0  0  0
   -1.1123    1.0531   -0.5982 C   0  0  0  0  0  0  0  0  0  0  0  0
   -0.8521   -0.2934   -0.3899 C   0  0  0  0  0  0  0  0  0  0  0  0
    0.4386   -0.7352   -0.1653 C   0  0  0  0  0  0  0  0  0  0  0  0
    1.4834    0.1639   -0.1407 C   0  0  0  0  0  0  0  0  0  0  0  0
    3.2586   -0.4443    0.1692 Br  0  0  0  0  0  0  0  0  0  0  0  0
    1.2363    1.5057   -0.3387 C   0  0  0  0  0  0  0  0  0  0  0  0
   -0.0546    1.9496   -0.5631 C   0  0  0  0  0  0  0  0  0  0  0  0
   -3.9256   -2.1176   -0.1956 Cl  0  0  0  0  0  0  0  0  0  0  0  0
   -3.7622    1.1149    2.3424 H   0  0  0  0  0  0  0  0  0  0  0  0
   -2.2382    0.6708    1.8323 H   0  0  0  0  0  0  0  0  0  0  0  0
   -3.5715    0.0061    1.1074 H   0  0  0  0  0  0  0  0  0  0  0  0
   -2.6824    2.8427    0.9064 H   0  0  0  0  0  0  0  0  0  0  0  0
   -4.2234    2.2872    0.2970 H   0  0  0  0  0  0  0  0  0  0  0  0
   -2.5174    2.3539   -1.5298 H   0  0  0  0  0  0  0  0  0  0  0  0
   -3.1007    0.7316   -1.2715 H   0  0  0  0  0  0  0  0  0  0  0  0
   -1.6711   -0.9931   -0.3950 H   0  0  0  0  0  0  0  0  0  0  0  0
    0.6422   -1.7811   -0.0040 H   0  0  0  0  0  0  0  0  0  0  0  0
    2.0604    2.1997   -0.3142 H   0  0  0  0  0  0  0  0  0  0  0  0
   -0.2481    2.9984   -0.7109 H   0  0  0  0  0  0  0  0  0  0  0  0
  1  2  1  0  0  0  0
  2  3  1  0  0  0  0
  3  4  1  0  0  0  0
  4  5  4  0  0  0  0
  5  6  4  0  0  0  0
  6  7  4  0  0  0  0
  7  8  1  0  0  0  0
  7  9  4  0  0  0  0
  4 10  4  0  0  0  0
  9 10  4  0  0  0  0
  1 12  1  0  0  0  0
  1 13  1  0  0  0  0
  1 14  1  0  0  0  0
  2 15  1  0  0  0  0
  2 16  1  0  0  0  0
  3 17  1  0  0  0  0
  3 18  1  0  0  0  0
  5 19  1  0  0  0  0
  6 20  1  0  0  0  0
  9 21  1  0  0  0  0
 10 22  1  0  0  0  0
M  END
