18

N          0.97047       -0.08386       -0.05990
C          2.45343       -0.06674       -0.03511
C          2.96669       -0.00230       -1.46256
C          4.49976        0.00246       -1.50599
C          5.01468        0.02843       -2.93982
O          4.51662       -1.11226       -3.62704
H          0.58006       -0.13083        0.89014
H          0.61320       -0.89806       -0.57998
H          0.58877        0.75878       -0.50956
H          2.77174       -0.98069        0.47519
H          2.75239        0.80708        0.55072
H          2.58631        0.89925       -1.95683
H          2.57822       -0.86160       -2.02333
H          4.87050       -0.90076       -1.00759
H          4.88917        0.86894       -0.96147
H          6.10846        0.02034       -2.97065
H          4.66274        0.92298       -3.46333
H          5.13215       -1.84838       -3.46045
