 xtb: 6.5.1 (fef0646)
          01242316463D

 18 17  0     0  0            999 V2000
    0.9497   -0.0854   -0.0457 N   0  0  0  0  0  0  0  0  0  0  0  0
    2.4328   -0.0886   -0.0486 C   0  0  0  0  0  0  0  0  0  0  0  0
    2.9621    0.0184   -1.4734 C   0  0  0  0  0  0  0  0  0  0  0  0
    4.4902    0.0031   -1.5014 C   0  0  0  0  0  0  0  0  0  0  0  0
    5.0097    0.0170   -2.9413 C   0  0  0  0  0  0  0  0  0  0  0  0
    4.6097   -1.1231   -3.6762 O   0  0  0  0  0  0  0  0  0  0  0  0
    0.5849   -0.1364    0.9122 H   0  0  0  0  0  0  0  0  0  0  0  0
    0.5940   -0.8884   -0.5782 H   0  0  0  0  0  0  0  0  0  0  0  0
    0.5975    0.7720   -0.4878 H   0  0  0  0  0  0  0  0  0  0  0  0
    2.7889   -1.0106    0.4109 H   0  0  0  0  0  0  0  0  0  0  0  0
    2.7950    0.7529    0.5420 H   0  0  0  0  0  0  0  0  0  0  0  0
    2.6213    0.9447   -1.9376 H   0  0  0  0  0  0  0  0  0  0  0  0
    2.6068   -0.8151   -2.0813 H   0  0  0  0  0  0  0  0  0  0  0  0
    4.8652   -0.8907   -0.9988 H   0  0  0  0  0  0  0  0  0  0  0  0
    4.8930    0.8747   -0.9853 H   0  0  0  0  0  0  0  0  0  0  0  0
    6.1026    0.1127   -2.9471 H   0  0  0  0  0  0  0  0  0  0  0  0
    4.5931    0.8677   -3.4868 H   0  0  0  0  0  0  0  0  0  0  0  0
    5.0589   -1.9021   -3.3230 H   0  0  0  0  0  0  0  0  0  0  0  0
  1  2  1  0  0  0  0
  2  3  1  0  0  0  0
  3  4  1  0  0  0  0
  4  5  1  0  0  0  0
  5  6  1  0  0  0  0
  1  7  1  0  0  0  0
  1  8  1  0  0  0  0
  1  9  1  0  0  0  0
  2 10  1  0  0  0  0
  2 11  1  0  0  0  0
  3 12  1  0  0  0  0
  3 13  1  0  0  0  0
  4 14  1  0  0  0  0
  4 15  1  0  0  0  0
  5 16  1  0  0  0  0
  5 17  1  0  0  0  0
  6 18  1  0  0  0  0
M  CHG  1   1   1
M  END
