34

N          2.66641        0.31168       -0.72085
C          2.28461        0.17404        0.68926
C          3.00236       -1.01515        1.33015
C          4.51275       -0.95144        1.33461
C          5.21327        0.25668        1.44243
C          6.60990        0.27144        1.43490
C          5.24772       -2.14597        1.28757
C          6.64706       -2.12442        1.29144
C          7.34502       -0.91581        1.34315
N          8.75458       -0.94518        1.34055
N          9.22714       -0.01288        0.65487
C         10.63396       -0.04760        0.58255
C         11.36694       -1.23978        0.46839
C         12.75777       -1.21562        0.32315
C         13.43125        0.00459        0.28672
C         12.72041        1.19681        0.40065
C         11.32697        1.16887        0.54573
Cl         0.52599        1.14755       -2.38261
H          2.11484        1.09315       -1.16567
H          2.27344       -0.43374       -1.31702
H          3.65203        0.45227       -0.94966
H          1.20110        0.02654        0.71813
H          2.51451        1.12240        1.18324
H          2.68416       -1.92459        0.80213
H          2.66350       -1.11595        2.36849
H          4.70389        1.21164        1.53779
H          7.13162        1.22329        1.50746
H          4.74099       -3.10926        1.24885
H          7.19920       -3.06087        1.25210
H         10.84870       -2.19564        0.47486
H         13.30661       -2.14686        0.23182
H         14.51061        0.02366        0.16387
H         13.24359        2.14953        0.36611
H         10.78056        2.10432        0.62182
