  15

 N          2.3065100000        0.0911600000        0.1046200000
 C          0.8688600000        0.0400700000        0.0179100000
 C          0.2178800000       -1.1911700000       -0.0006200000
 C         -1.1755200000       -1.2233300000       -0.0592900000
 C         -1.9021100000       -0.0324300000       -0.0993200000
 C         -1.2391200000        1.1954900000       -0.0871000000
 C          0.1536800000        1.2360800000       -0.0286600000
 H          2.7173700000       -0.8445600000        0.0192300000
 H          2.6838800000        0.6773800000       -0.6490900000
 H          2.5814900000        0.4857300000        1.0118100000
 H          0.7573900000       -2.1341100000        0.0335600000
 H         -1.7042900000       -2.1758300000       -0.0713600000
 H         -2.9907300000       -0.0614800000       -0.1399400000
 H         -1.8163900000        2.1189300000       -0.1206300000
 H          0.6474200000        2.2043400000       -0.0164100000
