 xtb: 6.5.1 (fef0646)
          01242310093D

 26 26  0     0  0            999 V2000
   -3.1793    0.6587   -1.6709 N   0  0  0  0  0  0  0  0  0  0  0  0
   -3.5438    1.6974   -0.6701 C   0  0  0  0  0  0  0  0  0  0  0  0
   -2.8488    1.4542    0.6668 C   0  0  0  0  0  0  0  0  0  0  0  0
   -1.3695    1.3779    0.5318 C   0  0  0  0  0  0  0  0  0  0  0  0
   -0.5233    2.4397    0.5517 C   0  0  0  0  0  0  0  0  0  0  0  0
    0.8416    2.0858    0.3789 C   0  0  0  0  0  0  0  0  0  0  0  0
    1.0446    0.7436    0.2223 C   0  0  0  0  0  0  0  0  0  0  0  0
    2.3196    0.0902    0.0242 C   0  0  0  0  0  0  0  0  0  0  0  0
    3.5430    0.7005   -0.0162 C   0  0  0  0  0  0  0  0  0  0  0  0
    4.6242   -0.1993   -0.2265 C   0  0  0  0  0  0  0  0  0  0  0  0
    4.2323   -1.4889   -0.3463 C   0  0  0  0  0  0  0  0  0  0  0  0
    2.5186   -1.6270   -0.2029 S   0  0  0  0  0  0  0  0  0  0  0  0
   -0.4800   -0.0955    0.2933 S   0  0  0  0  0  0  0  0  0  0  0  0
   -3.1656   -2.1203    0.3272 Cl  0  0  0  0  0  0  0  0  0  0  0  0
   -3.3178   -0.2841   -1.2635 H   0  0  0  0  0  0  0  0  0  0  0  0
   -2.1805    0.7254   -1.9198 H   0  0  0  0  0  0  0  0  0  0  0  0
   -3.7320    0.7256   -2.5416 H   0  0  0  0  0  0  0  0  0  0  0  0
   -4.6328    1.7171   -0.5357 H   0  0  0  0  0  0  0  0  0  0  0  0
   -3.2725    2.6866   -1.0582 H   0  0  0  0  0  0  0  0  0  0  0  0
   -3.2075    0.5147    1.1028 H   0  0  0  0  0  0  0  0  0  0  0  0
   -3.1094    2.2367    1.3899 H   0  0  0  0  0  0  0  0  0  0  0  0
   -0.8620    3.4568    0.6811 H   0  0  0  0  0  0  0  0  0  0  0  0
    1.6419    2.8098    0.3685 H   0  0  0  0  0  0  0  0  0  0  0  0
    3.6759    1.7652    0.1011 H   0  0  0  0  0  0  0  0  0  0  0  0
    5.6556    0.1190   -0.2842 H   0  0  0  0  0  0  0  0  0  0  0  0
    4.8853   -2.3267   -0.5088 H   0  0  0  0  0  0  0  0  0  0  0  0
  1  2  1  0  0  0  0
  2  3  1  0  0  0  0
  3  4  1  0  0  0  0
  4  5  2  0  0  0  0
  5  6  4  0  0  0  0
  6  7  2  0  0  0  0
  7  8  1  0  0  0  0
  8  9  2  0  0  0  0
  9 10  4  0  0  0  0
 10 11  2  0  0  0  0
  8 12  1  0  0  0  0
 11 12  1  0  0  0  0
  4 13  1  0  0  0  0
  7 13  1  0  0  0  0
  1 15  1  0  0  0  0
  1 16  1  0  0  0  0
  1 17  1  0  0  0  0
  2 18  1  0  0  0  0
  2 19  1  0  0  0  0
  3 20  1  0  0  0  0
  3 21  1  0  0  0  0
  5 22  1  0  0  0  0
  6 23  1  0  0  0  0
  9 24  1  0  0  0  0
 10 25  1  0  0  0  0
 11 26  1  0  0  0  0
M  END
