 xtb: 6.5.1 (fef0646)
          01242317073D

 22 21  0     0  0            999 V2000
   -1.8578   -0.4527    0.7051 N   0  0  0  0  0  0  0  0  0  0  0  0
   -1.6089   -1.2162   -0.5494 C   0  0  0  0  0  0  0  0  0  0  0  0
   -0.3048   -2.0079   -0.4960 C   0  0  0  0  0  0  0  0  0  0  0  0
    0.8996   -1.1289   -0.3351 C   0  0  0  0  0  0  0  0  0  0  0  0
    1.5158   -0.9818    0.8985 C   0  0  0  0  0  0  0  0  0  0  0  0
    2.6037   -0.1474    1.0475 C   0  0  0  0  0  0  0  0  0  0  0  0
    3.0977    0.5622   -0.0317 C   0  0  0  0  0  0  0  0  0  0  0  0
    4.1718    1.3849    0.1154 F   0  0  0  0  0  0  0  0  0  0  0  0
    2.4830    0.4238   -1.2628 C   0  0  0  0  0  0  0  0  0  0  0  0
    1.3954   -0.4108   -1.4125 C   0  0  0  0  0  0  0  0  0  0  0  0
   -4.8515    1.3726    0.4099 Cl  0  0  0  0  0  0  0  0  0  0  0  0
   -1.0894    0.2057    0.8906 H   0  0  0  0  0  0  0  0  0  0  0  0
   -1.9271   -1.0851    1.5136 H   0  0  0  0  0  0  0  0  0  0  0  0
   -2.7358    0.0939    0.6535 H   0  0  0  0  0  0  0  0  0  0  0  0
   -1.5814   -0.5209   -1.3963 H   0  0  0  0  0  0  0  0  0  0  0  0
   -2.4559   -1.8856   -0.7426 H   0  0  0  0  0  0  0  0  0  0  0  0
   -0.1853   -2.6144   -1.4011 H   0  0  0  0  0  0  0  0  0  0  0  0
   -0.3432   -2.7226    0.3322 H   0  0  0  0  0  0  0  0  0  0  0  0
    1.1363   -1.5276    1.7453 H   0  0  0  0  0  0  0  0  0  0  0  0
    3.0844   -0.0337    2.0031 H   0  0  0  0  0  0  0  0  0  0  0  0
    2.8694    0.9812   -2.0978 H   0  0  0  0  0  0  0  0  0  0  0  0
    0.9198   -0.5102   -2.3733 H   0  0  0  0  0  0  0  0  0  0  0  0
  1  2  1  0  0  0  0
  2  3  1  0  0  0  0
  3  4  1  0  0  0  0
  4  5  4  0  0  0  0
  5  6  4  0  0  0  0
  6  7  4  0  0  0  0
  7  8  1  0  0  0  0
  7  9  4  0  0  0  0
  4 10  4  0  0  0  0
  9 10  4  0  0  0  0
  1 12  1  0  0  0  0
  1 13  1  0  0  0  0
  1 14  1  0  0  0  0
  2 15  1  0  0  0  0
  2 16  1  0  0  0  0
  3 17  1  0  0  0  0
  3 18  1  0  0  0  0
  5 19  1  0  0  0  0
  6 20  1  0  0  0  0
  9 21  1  0  0  0  0
 10 22  1  0  0  0  0
M  END
