 xtb: 6.5.1 (fef0646)
          01242310053D

 36 36  0     0  0            999 V2000
   -4.4780   -0.1647    0.7083 N   0  0  0  0  0  0  0  0  0  0  0  0
   -4.5649    0.4921   -0.6234 C   0  0  0  0  0  0  0  0  0  0  0  0
   -3.7199    1.7615   -0.6892 C   0  0  0  0  0  0  0  0  0  0  0  0
   -2.2636    1.4945   -0.4399 C   0  0  0  0  0  0  0  0  0  0  0  0
   -1.7052    1.7053    0.8133 C   0  0  0  0  0  0  0  0  0  0  0  0
   -0.3783    1.4157    1.0522 C   0  0  0  0  0  0  0  0  0  0  0  0
    0.4385    0.9025    0.0446 C   0  0  0  0  0  0  0  0  0  0  0  0
    1.8389    0.6073    0.3328 C   0  0  0  0  0  0  0  0  0  0  0  0
    2.7697    0.2996   -0.5819 C   0  0  0  0  0  0  0  0  0  0  0  0
    4.1705    0.0053   -0.2945 C   0  0  0  0  0  0  0  0  0  0  0  0
    5.0816   -0.0988   -1.3475 C   0  0  0  0  0  0  0  0  0  0  0  0
    6.4121   -0.3755   -1.1109 C   0  0  0  0  0  0  0  0  0  0  0  0
    6.8623   -0.5574    0.1819 C   0  0  0  0  0  0  0  0  0  0  0  0
    5.9765   -0.4635    1.2378 C   0  0  0  0  0  0  0  0  0  0  0  0
    4.6451   -0.1862    1.0047 C   0  0  0  0  0  0  0  0  0  0  0  0
   -0.1317    0.6821   -1.2094 C   0  0  0  0  0  0  0  0  0  0  0  0
   -1.4603    0.9721   -1.4439 C   0  0  0  0  0  0  0  0  0  0  0  0
   -6.3469   -3.0960    0.8070 Cl  0  0  0  0  0  0  0  0  0  0  0  0
   -4.8139    0.4648    1.4546 H   0  0  0  0  0  0  0  0  0  0  0  0
   -3.5011   -0.4093    0.9324 H   0  0  0  0  0  0  0  0  0  0  0  0
   -5.0395   -1.0379    0.7532 H   0  0  0  0  0  0  0  0  0  0  0  0
   -5.6138    0.7153   -0.8563 H   0  0  0  0  0  0  0  0  0  0  0  0
   -4.2321   -0.2111   -1.3965 H   0  0  0  0  0  0  0  0  0  0  0  0
   -4.0849    2.4850    0.0488 H   0  0  0  0  0  0  0  0  0  0  0  0
   -3.8340    2.2523   -1.6637 H   0  0  0  0  0  0  0  0  0  0  0  0
   -2.3232    2.0961    1.6049 H   0  0  0  0  0  0  0  0  0  0  0  0
    0.0420    1.5876    2.0297 H   0  0  0  0  0  0  0  0  0  0  0  0
    2.1316    0.6683    1.3662 H   0  0  0  0  0  0  0  0  0  0  0  0
    2.4869    0.2843   -1.6199 H   0  0  0  0  0  0  0  0  0  0  0  0
    4.7329    0.0442   -2.3573 H   0  0  0  0  0  0  0  0  0  0  0  0
    7.1021   -0.4497   -1.9369 H   0  0  0  0  0  0  0  0  0  0  0  0
    7.9031   -0.7739    0.3667 H   0  0  0  0  0  0  0  0  0  0  0  0
    6.3270   -0.6092    2.2476 H   0  0  0  0  0  0  0  0  0  0  0  0
    3.9636   -0.1291    1.8364 H   0  0  0  0  0  0  0  0  0  0  0  0
    0.4662    0.2663   -2.0024 H   0  0  0  0  0  0  0  0  0  0  0  0
   -1.8903    0.7882   -2.4153 H   0  0  0  0  0  0  0  0  0  0  0  0
  1  2  1  0  0  0  0
  2  3  1  0  0  0  0
  3  4  1  0  0  0  0
  4  5  4  0  0  0  0
  5  6  4  0  0  0  0
  6  7  4  0  0  0  0
  7  8  1  0  0  0  0
  8  9  2  0  0  0  0
  9 10  1  0  0  0  0
 10 11  4  0  0  0  0
 11 12  4  0  0  0  0
 12 13  4  0  0  0  0
 13 14  4  0  0  0  0
 10 15  4  0  0  0  0
 14 15  4  0  0  0  0
  7 16  4  0  0  0  0
  4 17  4  0  0  0  0
 16 17  4  0  0  0  0
  1 19  1  0  0  0  0
  1 20  1  0  0  0  0
  1 21  1  0  0  0  0
  2 22  1  0  0  0  0
  2 23  1  0  0  0  0
  3 24  1  0  0  0  0
  3 25  1  0  0  0  0
  5 26  1  0  0  0  0
  6 27  1  0  0  0  0
  8 28  1  0  0  0  0
  9 29  1  0  0  0  0
 11 30  1  0  0  0  0
 12 31  1  0  0  0  0
 13 32  1  0  0  0  0
 14 33  1  0  0  0  0
 15 34  1  0  0  0  0
 16 35  1  0  0  0  0
 17 36  1  0  0  0  0
M  END
