28
 xtb: 6.5.1 (fef0646)
N           -3.14135460876581        1.71640101446649        0.00893231016930
C           -2.14297900898843        1.54513979152844       -1.08078229494369
C           -0.73045002158371        1.23339992208101       -0.56715155594627
C            0.30506911015485        1.32422308983087       -1.71470190803901
C            1.72942888939135        1.04026061374199       -1.21484569079825
C            1.82104403402158       -0.33970639522376       -0.53692089971156
C            3.23080645347559       -0.61600217799299       -0.05659990791899
O            4.23546067852772       -0.23317360387620       -0.87530571389448
O            3.41840619599870       -1.16847073940746        1.00711813630035
C            0.79695657743123       -0.43558684579930        0.61176386285337
C           -0.63385406588824       -0.14956558302292        0.12310533923657
Cl          -3.58466770506672       -1.68123448795884        1.71892273397033
H           -3.26020113738351        0.71883685692759        0.53777931867471
H           -4.08620854298163        1.89197911441032       -0.29792443788426
H           -2.86015471949536        2.32048115078799        0.75083762083619
H           -2.15490154342290        2.44787618352161       -1.62784424952900
H           -2.46230728926798        0.73364049084908       -1.75823971906300
H           -0.47403006417609        1.98447193987072        0.19350157883614
H            0.22906226700081        2.29891703427399       -2.19257847278645
H            0.02449114574185        0.58988081208947       -2.48123206367198
H            2.02424429336132        1.80640535076608       -0.49231059300328
H            2.45093127511932        1.10750281700356       -2.03230324020035
H            1.57693945383726       -1.11050862816584       -1.28120600267756
H            5.07393239780181       -0.48125310251107       -0.44258106670555
H            1.08916438065525        0.28271627700017        1.39148821761932
H            0.88757373942150       -1.42235616482249        1.09883718720924
H           -1.33278409817161       -0.22993987522370        0.97137770296877
H           -0.93446723948464       -0.93695114352002       -0.57421726724217
