28

N          3.79881        0.09854        1.56809
C          2.76201        0.58347        0.61339
C          3.35165        1.67923       -0.27200
O          4.48833        1.13195       -0.94645
C          5.18424        1.98225       -1.78111
C          4.81441        3.31312       -2.01637
C          5.58368        4.12308       -2.84792
C          6.72912        3.61605       -3.45149
C          7.11995        2.28901       -3.24328
C          8.27919        1.79117       -3.86134
C          8.67752        0.46877       -3.67412
C          7.91893       -0.37485       -2.87490
C          6.76381        0.10669       -2.25103
C          6.34126        1.44631       -2.40965
H          3.45870       -0.68419        2.14074
H          4.12523        0.84110        2.19985
H          4.62264       -0.22778        1.03869
H          1.91723        0.94569        1.20485
H          2.46582       -0.28929        0.02392
H          3.65790        2.52420        0.35732
H          2.59249        1.99690       -0.99502
H          3.93149        3.76439       -1.57686
H          5.29199        5.15495       -3.02946
H          7.31669        4.26958       -4.09522
H          8.88385        2.43325       -4.49926
H          9.57875        0.10101       -4.16105
H          8.22370       -1.40985       -2.74147
H          6.18601       -0.58512       -1.64605
