20
1.957
N           -2.32291   0.80099  -0.11283
C           -1.31515   0.09082   0.73178
C           -0.54304  -0.98311  -0.03680
C            0.53157  -0.43331  -0.99646
C            1.93855  -0.32978  -0.38995
C            2.05749   0.64369   0.77418
H           -3.01088   0.14029  -0.48743
H           -1.87830   1.27201  -0.90711
H           -2.82857   1.51002   0.42790
H           -1.83587  -0.35878   1.58641
H           -0.62484   0.82316   1.16093
H           -1.26998  -1.58459  -0.59521
H           -0.07141  -1.68756   0.65849
H            0.22324   0.54883  -1.36838
H            0.58132  -1.07000  -1.88970
H            2.64866  -0.03850  -1.17514
H            2.26498  -1.32691  -0.06986
H            1.47005   0.31599   1.63206
H            1.71198   1.63940   0.49372
H            3.08989   0.74141   1.11516
