16
1.098
N           -0.95377  -0.66546  -0.76213
C           -0.54043   0.12237   0.43444
C            0.77200   0.78658   0.23762
C            0.95847   2.05482  -0.20339
C            2.33177   2.42365  -0.31215
C            3.17884   1.43394   0.04424
S            2.31008   0.01961   0.52460
Cl          -4.04240  -2.21859  -0.17691
H           -1.86342  -1.13320  -0.61969
H           -0.25308  -1.39081  -0.97828
H           -1.03408  -0.05793  -1.58829
H           -0.48418  -0.53256   1.31121
H           -1.30161   0.87491   0.67102
H            0.14338   2.71741  -0.44988
H            2.65752   3.39739  -0.64721
H            4.25051   1.49881   0.03627
