 xtb: 6.5.1 (fef0646)
          01242316573D

 16 15  0     0  0            999 V2000
   -0.9538   -0.6655   -0.7621 N   0  0  0  0  0  0  0  0  0  0  0  0
   -0.5404    0.1224    0.4344 C   0  0  0  0  0  0  0  0  0  0  0  0
    0.7720    0.7866    0.2376 C   0  0  0  0  0  0  0  0  0  0  0  0
    0.9585    2.0548   -0.2034 C   0  0  0  0  0  0  0  0  0  0  0  0
    2.3318    2.4236   -0.3122 C   0  0  0  0  0  0  0  0  0  0  0  0
    3.1788    1.4339    0.0442 C   0  0  0  0  0  0  0  0  0  0  0  0
    2.3101    0.0196    0.5246 S   0  0  0  0  0  0  0  0  0  0  0  0
   -4.0424   -2.2186   -0.1769 Cl  0  0  0  0  0  0  0  0  0  0  0  0
   -1.8634   -1.1332   -0.6197 H   0  0  0  0  0  0  0  0  0  0  0  0
   -0.2531   -1.3908   -0.9783 H   0  0  0  0  0  0  0  0  0  0  0  0
   -1.0341   -0.0579   -1.5883 H   0  0  0  0  0  0  0  0  0  0  0  0
   -0.4842   -0.5326    1.3112 H   0  0  0  0  0  0  0  0  0  0  0  0
   -1.3016    0.8749    0.6710 H   0  0  0  0  0  0  0  0  0  0  0  0
    0.1434    2.7174   -0.4499 H   0  0  0  0  0  0  0  0  0  0  0  0
    2.6575    3.3974   -0.6472 H   0  0  0  0  0  0  0  0  0  0  0  0
    4.2505    1.4988    0.0363 H   0  0  0  0  0  0  0  0  0  0  0  0
  1  2  1  0  0  0  0
  2  3  1  0  0  0  0
  3  4  2  0  0  0  0
  4  5  4  0  0  0  0
  5  6  2  0  0  0  0
  3  7  1  0  0  0  0
  6  7  1  0  0  0  0
  1  9  1  0  0  0  0
  1 10  1  0  0  0  0
  1 11  1  0  0  0  0
  2 12  1  0  0  0  0
  2 13  1  0  0  0  0
  4 14  1  0  0  0  0
  5 15  1  0  0  0  0
  6 16  1  0  0  0  0
M  END
