22
0.0
N           -3.46711  -0.31407   0.81053
C           -2.78052  -0.06012  -0.49199
C           -1.29639   0.04485  -0.34268
C           -0.50168  -1.10087  -0.33287
C            0.86110  -1.01799  -0.16258
C            1.49594   0.23137   0.01076
C            2.90653   0.36484   0.19073
C            3.79428  -0.64951   0.22837
C            0.67818   1.38266   0.00369
C           -0.68332   1.28495  -0.16601
H           -3.13894  -1.19289   1.22388
H           -4.48443  -0.37329   0.69553
H           -3.26117   0.43819   1.47559
H           -3.17000   0.86012  -0.94054
H           -3.02125  -0.86129  -1.19916
H           -0.96824  -2.06223  -0.46329
H            1.44701  -1.91924  -0.16238
H            3.28218   1.36884   0.30603
H            3.49369  -1.67115   0.12386
H            4.84185  -0.46859   0.36785
H            1.13342   2.34924   0.13578
H           -1.28935   2.17472  -0.16430
