 xtb: 6.5.1 (fef0646)
          02032317563D

 22 22  0     0  0            999 V2000
   -3.4671   -0.3141    0.8105 N   0  0  0  0  0  0  0  0  0  0  0  0
   -2.7805   -0.0601   -0.4920 C   0  0  0  0  0  0  0  0  0  0  0  0
   -1.2964    0.0449   -0.3427 C   0  0  0  0  0  0  0  0  0  0  0  0
   -0.5017   -1.1009   -0.3329 C   0  0  0  0  0  0  0  0  0  0  0  0
    0.8611   -1.0180   -0.1626 C   0  0  0  0  0  0  0  0  0  0  0  0
    1.4959    0.2314    0.0108 C   0  0  0  0  0  0  0  0  0  0  0  0
    2.9065    0.3648    0.1907 C   0  0  0  0  0  0  0  0  0  0  0  0
    3.7943   -0.6495    0.2284 C   0  0  0  0  0  0  0  0  0  0  0  0
    0.6782    1.3827    0.0037 C   0  0  0  0  0  0  0  0  0  0  0  0
   -0.6833    1.2850   -0.1660 C   0  0  0  0  0  0  0  0  0  0  0  0
   -3.1389   -1.1929    1.2239 H   0  0  0  0  0  0  0  0  0  0  0  0
   -4.4844   -0.3733    0.6955 H   0  0  0  0  0  0  0  0  0  0  0  0
   -3.2612    0.4382    1.4756 H   0  0  0  0  0  0  0  0  0  0  0  0
   -3.1700    0.8601   -0.9405 H   0  0  0  0  0  0  0  0  0  0  0  0
   -3.0213   -0.8613   -1.1991 H   0  0  0  0  0  0  0  0  0  0  0  0
   -0.9683   -2.0622   -0.4633 H   0  0  0  0  0  0  0  0  0  0  0  0
    1.4470   -1.9192   -0.1624 H   0  0  0  0  0  0  0  0  0  0  0  0
    3.2822    1.3688    0.3060 H   0  0  0  0  0  0  0  0  0  0  0  0
    3.4937   -1.6712    0.1239 H   0  0  0  0  0  0  0  0  0  0  0  0
    4.8418   -0.4686    0.3678 H   0  0  0  0  0  0  0  0  0  0  0  0
    1.1334    2.3492    0.1358 H   0  0  0  0  0  0  0  0  0  0  0  0
   -1.2893    2.1747   -0.1643 H   0  0  0  0  0  0  0  0  0  0  0  0
  1  2  1  0  0  0  0
  2  3  1  0  0  0  0
  3  4  4  0  0  0  0
  4  5  4  0  0  0  0
  5  6  4  0  0  0  0
  6  7  1  0  0  0  0
  7  8  2  0  0  0  0
  6  9  4  0  0  0  0
  3 10  4  0  0  0  0
  9 10  4  0  0  0  0
  1 11  1  0  0  0  0
  1 12  1  0  0  0  0
  1 13  1  0  0  0  0
  2 14  1  0  0  0  0
  2 15  1  0  0  0  0
  4 16  1  0  0  0  0
  5 17  1  0  0  0  0
  7 18  1  0  0  0  0
  8 19  1  0  0  0  0
  8 20  1  0  0  0  0
  9 21  1  0  0  0  0
 10 22  1  0  0  0  0
M  CHG  1   1   1
M  END
