 xtb: 6.5.1 (fef0646)
          01232320023D

 21 19  0     0  0            999 V2000
    1.0677   -0.1061   -0.3143 N   0  0  0  0  0  0  0  0  0  0  0  0
    2.5248   -0.1113   -0.4513 C   0  0  0  0  0  0  0  0  0  0  0  0
    3.1331   -1.0588    0.5806 C   0  0  0  0  0  0  0  0  0  0  0  0
    4.6504   -0.9223    0.6894 C   0  0  0  0  0  0  0  0  0  0  0  0
    5.0705    0.3438    1.4325 C   0  0  0  0  0  0  0  0  0  0  0  0
    6.5789    0.4443    1.5569 C   0  0  0  0  0  0  0  0  0  0  0  0
    7.0105    1.4804    2.3031 O   0  0  0  0  0  0  0  0  0  0  0  0
    7.3556   -0.3044    1.0431 O   0  0  0  0  0  0  0  0  0  0  0  0
    0.5473    1.0183    2.3367 Cl  0  0  0  0  0  0  0  0  0  0  0  0
    0.6322    0.4867   -1.0120 H   0  0  0  0  0  0  0  0  0  0  0  0
    0.7615    0.4762    1.0883 H   0  0  0  0  0  0  0  0  0  0  0  0
    0.6931   -1.0453   -0.4029 H   0  0  0  0  0  0  0  0  0  0  0  0
    2.8614    0.9118   -0.2728 H   0  0  0  0  0  0  0  0  0  0  0  0
    2.8474   -0.4065   -1.4594 H   0  0  0  0  0  0  0  0  0  0  0  0
    2.8854   -2.0854    0.3031 H   0  0  0  0  0  0  0  0  0  0  0  0
    2.6765   -0.8544    1.5498 H   0  0  0  0  0  0  0  0  0  0  0  0
    5.1029   -0.9231   -0.3035 H   0  0  0  0  0  0  0  0  0  0  0  0
    5.0520   -1.7818    1.2276 H   0  0  0  0  0  0  0  0  0  0  0  0
    4.6272    0.3521    2.4322 H   0  0  0  0  0  0  0  0  0  0  0  0
    4.7214    1.2357    0.9049 H   0  0  0  0  0  0  0  0  0  0  0  0
    6.2869    2.0027    2.6738 H   0  0  0  0  0  0  0  0  0  0  0  0
  1  2  1  0  0  0  0
  2  3  1  0  0  0  0
  3  4  1  0  0  0  0
  4  5  1  0  0  0  0
  5  6  1  0  0  0  0
  6  7  1  0  0  0  0
  6  8  2  0  0  0  0
  1 10  1  0  0  0  0
  9 11  1  0  0  0  0
  1 12  1  0  0  0  0
  2 13  1  0  0  0  0
  2 14  1  0  0  0  0
  3 15  1  0  0  0  0
  3 16  1  0  0  0  0
  4 17  1  0  0  0  0
  4 18  1  0  0  0  0
  5 19  1  0  0  0  0
  5 20  1  0  0  0  0
  7 21  1  0  0  0  0
M  END
