34
1.541
N            3.97989  -0.38490   0.30988
C            3.50044   1.00339   0.06131
C            2.31487   1.37165   0.95000
C            1.12015   0.49815   0.70863
C            0.81883  -0.55118   1.56618
C           -0.25863  -1.37318   1.32321
C            0.31972   0.69526  -0.40764
C           -0.75803  -0.12454  -0.65516
C           -1.06782  -1.16917   0.20955
N           -2.17504  -1.98569  -0.02495
N           -3.33255  -1.55151  -0.17979
C           -3.68815  -0.21411   0.00300
C           -3.40819   0.43868   1.20028
C           -3.73466   1.76580   1.36854
C           -4.34985   2.46221   0.34626
C           -4.63884   1.82585  -0.84542
C           -4.31257   0.49872  -1.01710
Cl           6.63924  -1.17751  -1.84638
H            4.76760  -0.63696  -0.30893
H            3.22462  -1.06489   0.14823
H            4.29585  -0.49814   1.28574
H            3.21397   1.10442  -0.99197
H            4.32676   1.70851   0.21249
H            2.02866   2.41866   0.79663
H            2.60829   1.29929   2.00227
H            1.43934  -0.71856   2.43013
H           -0.49346  -2.18121   1.99393
H            0.55119   1.50124  -1.08330
H           -1.38059   0.03571  -1.51792
H           -2.92379  -0.11053   1.98872
H           -3.50819   2.26188   2.29830
H           -4.60433   3.50119   0.47844
H           -5.11880   2.36920  -1.64302
H           -4.52828  -0.00330  -1.94412
