 xtb: 6.5.1 (fef0646)
          01242316583D

 34 34  0     0  0            999 V2000
    3.9594    1.4042   -1.6071 N   0  0  0  0  0  0  0  0  0  0  0  0
    2.6260    1.0289   -1.0558 C   0  0  0  0  0  0  0  0  0  0  0  0
    2.5758   -0.4267   -0.6054 C   0  0  0  0  0  0  0  0  0  0  0  0
    1.2474   -0.8089   -0.0234 C   0  0  0  0  0  0  0  0  0  0  0  0
    0.2237   -1.2680   -0.8403 C   0  0  0  0  0  0  0  0  0  0  0  0
   -1.0101   -1.5783   -0.3148 C   0  0  0  0  0  0  0  0  0  0  0  0
    0.9997   -0.6584    1.3341 C   0  0  0  0  0  0  0  0  0  0  0  0
   -0.2332   -0.9668    1.8640 C   0  0  0  0  0  0  0  0  0  0  0  0
   -1.2599   -1.4279    1.0455 C   0  0  0  0  0  0  0  0  0  0  0  0
   -2.5224   -1.7019    1.5734 N   0  0  0  0  0  0  0  0  0  0  0  0
   -3.5719   -1.1746    1.1573 N   0  0  0  0  0  0  0  0  0  0  0  0
   -3.5983   -0.1490    0.2106 C   0  0  0  0  0  0  0  0  0  0  0  0
   -2.8678    1.0197    0.4073 C   0  0  0  0  0  0  0  0  0  0  0  0
   -2.8699    2.0168   -0.5423 C   0  0  0  0  0  0  0  0  0  0  0  0
   -3.6055    1.8664   -1.7019 C   0  0  0  0  0  0  0  0  0  0  0  0
   -4.3404    0.7149   -1.9080 C   0  0  0  0  0  0  0  0  0  0  0  0
   -4.3389   -0.2850   -0.9606 C   0  0  0  0  0  0  0  0  0  0  0  0
    6.2682    0.6859    0.9431 Cl  0  0  0  0  0  0  0  0  0  0  0  0
    3.9992    2.3937   -1.8857 H   0  0  0  0  0  0  0  0  0  0  0  0
    4.1913    0.8319   -2.4290 H   0  0  0  0  0  0  0  0  0  0  0  0
    4.6962    1.2419   -0.9001 H   0  0  0  0  0  0  0  0  0  0  0  0
    1.8467    1.2118   -1.8047 H   0  0  0  0  0  0  0  0  0  0  0  0
    2.3769    1.6820   -0.2114 H   0  0  0  0  0  0  0  0  0  0  0  0
    3.3644   -0.6135    0.1313 H   0  0  0  0  0  0  0  0  0  0  0  0
    2.8083   -1.0850   -1.4487 H   0  0  0  0  0  0  0  0  0  0  0  0
    0.4024   -1.3734   -1.8970 H   0  0  0  0  0  0  0  0  0  0  0  0
   -1.8038   -1.9280   -0.9516 H   0  0  0  0  0  0  0  0  0  0  0  0
    1.7846   -0.2894    1.9725 H   0  0  0  0  0  0  0  0  0  0  0  0
   -0.4237   -0.8437    2.9158 H   0  0  0  0  0  0  0  0  0  0  0  0
   -2.2928    1.1254    1.3107 H   0  0  0  0  0  0  0  0  0  0  0  0
   -2.2952    2.9144   -0.3814 H   0  0  0  0  0  0  0  0  0  0  0  0
   -3.6062    2.6470   -2.4452 H   0  0  0  0  0  0  0  0  0  0  0  0
   -4.9146    0.5977   -2.8126 H   0  0  0  0  0  0  0  0  0  0  0  0
   -4.9031   -1.1881   -1.1157 H   0  0  0  0  0  0  0  0  0  0  0  0
  1  2  1  0  0  0  0
  2  3  1  0  0  0  0
  3  4  1  0  0  0  0
  4  5  4  0  0  0  0
  5  6  4  0  0  0  0
  4  7  4  0  0  0  0
  7  8  4  0  0  0  0
  6  9  4  0  0  0  0
  8  9  4  0  0  0  0
  9 10  1  0  0  0  0
 10 11  2  0  0  0  0
 11 12  1  0  0  0  0
 12 13  4  0  0  0  0
 13 14  4  0  0  0  0
 14 15  4  0  0  0  0
 15 16  4  0  0  0  0
 12 17  4  0  0  0  0
 16 17  4  0  0  0  0
  1 19  1  0  0  0  0
  1 20  1  0  0  0  0
  1 21  1  0  0  0  0
  2 22  1  0  0  0  0
  2 23  1  0  0  0  0
  3 24  1  0  0  0  0
  3 25  1  0  0  0  0
  5 26  1  0  0  0  0
  6 27  1  0  0  0  0
  7 28  1  0  0  0  0
  8 29  1  0  0  0  0
 13 30  1  0  0  0  0
 14 31  1  0  0  0  0
 15 32  1  0  0  0  0
 16 33  1  0  0  0  0
 17 34  1  0  0  0  0
M  END
