36
0.0
N           -5.30791  -1.34263   0.91005
C           -5.28994  -0.49073  -0.30778
C           -4.10043   0.45388  -0.28474
O           -2.88339  -0.27898  -0.23767
C           -1.76142   0.46885  -0.16199
C           -0.50654  -0.23887  -0.13685
C           -0.46618  -1.63923  -0.21790
C            0.71593  -2.32060  -0.18773
C            0.70385   0.48083  -0.03234
C            0.69438   1.89684   0.03685
C           -0.54995   2.57024  -0.00550
C           -1.72233   1.89083  -0.10184
C            1.92138   2.58498   0.14234
C            3.10772   1.91570   0.17851
C            3.15410   0.49960   0.10919
C            4.35681  -0.21642   0.14191
C            4.36042  -1.59389   0.06933
C            3.18237  -2.29972  -0.03798
C            1.94873  -1.63389  -0.07470
C            1.93678  -0.21882   0.00120
H           -4.40757  -1.82585   0.99865
H           -6.05623  -2.04485   0.87794
H           -5.43535  -0.76982   1.75165
H           -6.23186   0.06331  -0.39353
H           -5.22058  -1.13043  -1.19489
H           -4.14234   1.09153   0.60486
H           -4.07754   1.09150  -1.17657
H           -1.39906  -2.16744  -0.31270
H            0.72222  -3.39500  -0.25103
H           -0.55447   3.64583   0.04119
H           -2.64246   2.44494  -0.13264
H            1.90895   3.66027   0.19469
H            4.03232   2.46082   0.25994
H            5.28506   0.32237   0.22481
H            5.29790  -2.12521   0.09647
H            3.19945  -3.37450  -0.09517
