 xtb: 6.5.1 (fef0646)
          01242317133D

 36 39  0     0  0            999 V2000
   -5.3079   -1.3426    0.9101 N   0  0  0  0  0  0  0  0  0  0  0  0
   -5.2899   -0.4907   -0.3078 C   0  0  0  0  0  0  0  0  0  0  0  0
   -4.1004    0.4539   -0.2847 C   0  0  0  0  0  0  0  0  0  0  0  0
   -2.8834   -0.2790   -0.2377 O   0  0  0  0  0  0  0  0  0  0  0  0
   -1.7614    0.4689   -0.1620 C   0  0  0  0  0  0  0  0  0  0  0  0
   -0.5065   -0.2389   -0.1368 C   0  0  0  0  0  0  0  0  0  0  0  0
   -0.4662   -1.6392   -0.2179 C   0  0  0  0  0  0  0  0  0  0  0  0
    0.7159   -2.3206   -0.1877 C   0  0  0  0  0  0  0  0  0  0  0  0
    0.7039    0.4808   -0.0323 C   0  0  0  0  0  0  0  0  0  0  0  0
    0.6944    1.8968    0.0368 C   0  0  0  0  0  0  0  0  0  0  0  0
   -0.5499    2.5702   -0.0055 C   0  0  0  0  0  0  0  0  0  0  0  0
   -1.7223    1.8908   -0.1018 C   0  0  0  0  0  0  0  0  0  0  0  0
    1.9214    2.5850    0.1423 C   0  0  0  0  0  0  0  0  0  0  0  0
    3.1077    1.9157    0.1785 C   0  0  0  0  0  0  0  0  0  0  0  0
    3.1541    0.4996    0.1092 C   0  0  0  0  0  0  0  0  0  0  0  0
    4.3568   -0.2164    0.1419 C   0  0  0  0  0  0  0  0  0  0  0  0
    4.3604   -1.5939    0.0693 C   0  0  0  0  0  0  0  0  0  0  0  0
    3.1824   -2.2997   -0.0380 C   0  0  0  0  0  0  0  0  0  0  0  0
    1.9487   -1.6339   -0.0747 C   0  0  0  0  0  0  0  0  0  0  0  0
    1.9368   -0.2188    0.0012 C   0  0  0  0  0  0  0  0  0  0  0  0
   -4.4076   -1.8258    0.9987 H   0  0  0  0  0  0  0  0  0  0  0  0
   -6.0562   -2.0448    0.8780 H   0  0  0  0  0  0  0  0  0  0  0  0
   -5.4353   -0.7698    1.7517 H   0  0  0  0  0  0  0  0  0  0  0  0
   -6.2319    0.0633   -0.3935 H   0  0  0  0  0  0  0  0  0  0  0  0
   -5.2206   -1.1304   -1.1949 H   0  0  0  0  0  0  0  0  0  0  0  0
   -4.1423    1.0916    0.6049 H   0  0  0  0  0  0  0  0  0  0  0  0
   -4.0775    1.0915   -1.1766 H   0  0  0  0  0  0  0  0  0  0  0  0
   -1.3991   -2.1674   -0.3127 H   0  0  0  0  0  0  0  0  0  0  0  0
    0.7222   -3.3950   -0.2510 H   0  0  0  0  0  0  0  0  0  0  0  0
   -0.5545    3.6458    0.0412 H   0  0  0  0  0  0  0  0  0  0  0  0
   -2.6424    2.4450   -0.1326 H   0  0  0  0  0  0  0  0  0  0  0  0
    1.9090    3.6603    0.1947 H   0  0  0  0  0  0  0  0  0  0  0  0
    4.0323    2.4608    0.2599 H   0  0  0  0  0  0  0  0  0  0  0  0
    5.2851    0.3223    0.2248 H   0  0  0  0  0  0  0  0  0  0  0  0
    5.2979   -2.1252    0.0965 H   0  0  0  0  0  0  0  0  0  0  0  0
    3.1994   -3.3745   -0.0952 H   0  0  0  0  0  0  0  0  0  0  0  0
  1  2  1  0  0  0  0
  2  3  1  0  0  0  0
  3  4  1  0  0  0  0
  4  5  1  0  0  0  0
  5  6  4  0  0  0  0
  6  7  4  0  0  0  0
  7  8  2  0  0  0  0
  6  9  4  0  0  0  0
  9 10  4  0  0  0  0
 10 11  4  0  0  0  0
  5 12  4  0  0  0  0
 11 12  4  0  0  0  0
 10 13  4  0  0  0  0
 13 14  2  0  0  0  0
 14 15  4  0  0  0  0
 15 16  4  0  0  0  0
 16 17  4  0  0  0  0
 17 18  4  0  0  0  0
  8 19  4  0  0  0  0
 18 19  4  0  0  0  0
  9 20  4  0  0  0  0
 15 20  4  0  0  0  0
 19 20  4  0  0  0  0
  1 21  1  0  0  0  0
  1 22  1  0  0  0  0
  1 23  1  0  0  0  0
  2 24  1  0  0  0  0
  2 25  1  0  0  0  0
  3 26  1  0  0  0  0
  3 27  1  0  0  0  0
  7 28  1  0  0  0  0
  8 29  1  0  0  0  0
 11 30  1  0  0  0  0
 12 31  1  0  0  0  0
 13 32  1  0  0  0  0
 14 33  1  0  0  0  0
 16 34  1  0  0  0  0
 17 35  1  0  0  0  0
 18 36  1  0  0  0  0
M  CHG  1   1   1
M  END
