12
0.0
N            0.53815  -1.30851  -0.54156
C            1.42969  -0.94844   0.58820
C            1.62958   0.55652   0.63903
F            2.07941   1.03122  -0.53019
Cl          -2.57328   0.23949   0.03064
H            0.92349  -0.93783  -1.41778
H           -0.39434  -0.88246  -0.41231
H            0.41800  -2.32508  -0.63781
H            2.39989  -1.44017   0.45694
H            1.01919  -1.32340   1.53339
H            2.33567   0.84238   1.42882
H            0.68206   1.05930   0.86596
