25
 xtb: 6.5.1 (fef0646)
N           -1.15835403464752        1.02248215428306        0.59923722894788
C           -0.28430697070839       -0.17751693408272        0.50526746212177
C            1.07339538525957        0.05691995687651        1.17888419046789
C            1.89064766524335        1.18004445775243        0.48649099325463
C            2.42035477483698        0.74778134607262       -0.89133082292929
C            3.25788415454236       -0.53662658842482       -0.78018526889393
C            2.45176957388214       -1.67009713670116       -0.12436738168001
C            1.91192352478164       -1.24708583316043        1.25324355444326
Cl          -4.52687706292970        0.15178652955168       -0.93147135319661
H           -1.36280945185736        1.27944244829447        1.54048477768501
H           -2.14281961021896        0.78329890024837        0.15418369942309
H           -0.82899172748416        1.79902393860139        0.05160562946894
H           -0.15314958647070       -0.46835177222549       -0.56316919021304
H           -0.79898533665744       -1.05647727801991        0.94517541997499
H            0.82119403760118        0.38743134642629        2.19641682714243
H            2.70181048677726        1.46568266215508        1.12379978263397
H            1.25419178317795        2.09080280713220        0.38095332825674
H            2.99542865782673        1.55819955981935       -1.34954622151473
H            1.57381819056141        0.57634365247565       -1.58615222346848
H            4.13997380656660       -0.32414956645157       -0.16724303072505
H            3.63129721127621       -0.84059173257878       -1.75713418657918
H            3.05832664532843       -2.57179104608010       -0.02468675165678
H            1.61392017727677       -1.95209557356884       -0.78023028672252
H            2.72397407762704       -1.08938603649369        1.94712570958464
H            1.28634986484905       -2.04786362916967        1.68659532397937
