 xtb: 6.5.1 (fef0646)
          01242310043D

 25 24  0     0  0            999 V2000
   -1.2382    0.9745    0.5469 N   0  0  0  0  0  0  0  0  0  0  0  0
   -0.3216   -0.1947    0.4750 C   0  0  0  0  0  0  0  0  0  0  0  0
    1.0295    0.0583    1.1605 C   0  0  0  0  0  0  0  0  0  0  0  0
    1.8493    1.1832    0.4738 C   0  0  0  0  0  0  0  0  0  0  0  0
    2.4015    0.7495   -0.8948 C   0  0  0  0  0  0  0  0  0  0  0  0
    3.2457   -0.5293   -0.7711 C   0  0  0  0  0  0  0  0  0  0  0  0
    2.4388   -1.6645   -0.1193 C   0  0  0  0  0  0  0  0  0  0  0  0
    1.8801   -1.2382    1.2500 C   0  0  0  0  0  0  0  0  0  0  0  0
   -4.3318    0.1819   -0.8553 Cl  0  0  0  0  0  0  0  0  0  0  0  0
   -1.3888    1.2679    1.5251 H   0  0  0  0  0  0  0  0  0  0  0  0
   -2.1673    0.7620    0.1374 H   0  0  0  0  0  0  0  0  0  0  0  0
   -0.8571    1.7882    0.0364 H   0  0  0  0  0  0  0  0  0  0  0  0
   -0.1595   -0.4734   -0.5712 H   0  0  0  0  0  0  0  0  0  0  0  0
   -0.8056   -1.0642    0.9358 H   0  0  0  0  0  0  0  0  0  0  0  0
    0.8047    0.3887    2.1900 H   0  0  0  0  0  0  0  0  0  0  0  0
    2.6865    1.4694    1.1232 H   0  0  0  0  0  0  0  0  0  0  0  0
    1.2401    2.0898    0.3734 H   0  0  0  0  0  0  0  0  0  0  0  0
    2.9900    1.5595   -1.3491 H   0  0  0  0  0  0  0  0  0  0  0  0
    1.5711    0.5747   -1.5899 H   0  0  0  0  0  0  0  0  0  0  0  0
    4.1344   -0.3201   -0.1623 H   0  0  0  0  0  0  0  0  0  0  0  0
    3.6310   -0.8388   -1.7532 H   0  0  0  0  0  0  0  0  0  0  0  0
    3.0557   -2.5691   -0.0200 H   0  0  0  0  0  0  0  0  0  0  0  0
    1.6127   -1.9525   -0.7811 H   0  0  0  0  0  0  0  0  0  0  0  0
    2.7123   -1.0834    1.9484 H   0  0  0  0  0  0  0  0  0  0  0  0
    1.2782   -2.0464    1.6851 H   0  0  0  0  0  0  0  0  0  0  0  0
  1  2  1  0  0  0  0
  2  3  1  0  0  0  0
  3  4  1  0  0  0  0
  4  5  1  0  0  0  0
  5  6  1  0  0  0  0
  6  7  1  0  0  0  0
  3  8  1  0  0  0  0
  7  8  1  0  0  0  0
  1 10  1  0  0  0  0
  1 11  1  0  0  0  0
  1 12  1  0  0  0  0
  2 13  1  0  0  0  0
  2 14  1  0  0  0  0
  3 15  1  0  0  0  0
  4 16  1  0  0  0  0
  4 17  1  0  0  0  0
  5 18  1  0  0  0  0
  5 19  1  0  0  0  0
  6 20  1  0  0  0  0
  6 21  1  0  0  0  0
  7 22  1  0  0  0  0
  7 23  1  0  0  0  0
  8 24  1  0  0  0  0
  8 25  1  0  0  0  0
M  END
