48

N          2.49902        1.11374       -0.03834
C          2.68986        1.94422       -1.23596
C          4.16001        2.33251       -1.40076
C          5.07949        1.15306       -1.57631
C          4.83692       -0.06327       -2.18179
C          5.97257       -0.92139       -2.14850
C          7.07483       -0.33185       -1.55994
C          8.40158       -0.88404       -1.42688
C          9.33791       -0.62880       -0.44984
C         10.59818       -1.29023       -0.66831
C         11.74309       -1.11533        0.28149
C         10.57884       -2.04710       -1.83981
C         11.62528       -2.86701       -2.44077
C         11.87631       -3.16672       -3.77384
C         11.17113       -2.58665       -4.89039
N         10.62674       -2.11790       -5.79918
C         12.92360       -4.14149       -3.93554
C         13.28865       -4.68549       -5.21402
N         13.55252       -5.11506       -6.25868
C         13.52226       -4.49446       -2.73487
C         14.65417       -5.37049       -2.47040
C         14.87785       -6.25116       -1.40944
C         13.97710       -6.56938       -0.25446
C         16.16539       -6.88614       -1.52144
C         16.86488       -6.49573       -2.63485
S         16.01666       -5.33078       -3.53148
S         12.77272       -3.65974       -1.44550
S          9.01435       -2.00373       -2.55658
S          6.69245        1.24648       -1.00444
Cl         0.00563       -0.27570        0.28041
H          1.49689        0.75646        0.00534
H          2.62312        1.57423        0.86461
H          3.00895        0.22405       -0.04252
H          2.06306        2.83244       -1.11384
H          2.32141        1.36969       -2.09178
H          4.46809        2.92882       -0.53172
H          4.25996        2.98090       -2.28015
H          3.89477       -0.34923       -2.63561
H          5.97744       -1.92308       -2.56334
H          9.14696        0.02123        0.39706
H         11.50486       -0.37989        1.05684
H         12.63458       -0.76357       -0.24634
H         11.96727       -2.05431        0.79694
H         12.96200       -6.18981       -0.37185
H         14.39843       -6.15591        0.66905
H         13.89270       -7.65445       -0.13200
H         16.55266       -7.60519       -0.80830
H         17.84205       -6.83093       -2.95472
