 xtb: 6.5.1 (fef0646)
          01242310103D

 27 27  0     0  0            999 V2000
   -3.2772    0.0901   -0.4438 N   0  0  0  0  0  0  0  0  0  0  0  0
   -2.3442    0.2714    0.7056 C   0  0  0  0  0  0  0  0  0  0  0  0
   -1.0824   -0.5828    0.6025 C   0  0  0  0  0  0  0  0  0  0  0  0
   -0.1773   -0.2662   -0.6060 C   0  0  0  0  0  0  0  0  0  0  0  0
    0.9794   -1.2971   -0.7470 C   0  0  0  0  0  0  0  0  0  0  0  0
    2.0752   -1.1083    0.3179 C   0  0  0  0  0  0  0  0  0  0  0  0
    2.6224    0.3286    0.3158 C   0  0  0  0  0  0  0  0  0  0  0  0
    1.4915    1.3554    0.4898 C   0  0  0  0  0  0  0  0  0  0  0  0
    0.4018    1.1753   -0.5815 C   0  0  0  0  0  0  0  0  0  0  0  0
   -4.1477    0.6278   -0.3146 H   0  0  0  0  0  0  0  0  0  0  0  0
   -3.5423   -0.8998   -0.5529 H   0  0  0  0  0  0  0  0  0  0  0  0
   -2.8581    0.4005   -1.3323 H   0  0  0  0  0  0  0  0  0  0  0  0
   -2.8815    0.0293    1.6318 H   0  0  0  0  0  0  0  0  0  0  0  0
   -2.0812    1.3311    0.7963 H   0  0  0  0  0  0  0  0  0  0  0  0
   -1.3759   -1.6376    0.5580 H   0  0  0  0  0  0  0  0  0  0  0  0
   -0.4933   -0.4882    1.5205 H   0  0  0  0  0  0  0  0  0  0  0  0
   -0.8057   -0.3556   -1.5078 H   0  0  0  0  0  0  0  0  0  0  0  0
    1.4275   -1.2117   -1.7440 H   0  0  0  0  0  0  0  0  0  0  0  0
    0.5744   -2.3155   -0.6965 H   0  0  0  0  0  0  0  0  0  0  0  0
    2.8904   -1.8279    0.1601 H   0  0  0  0  0  0  0  0  0  0  0  0
    1.6731   -1.3457    1.3094 H   0  0  0  0  0  0  0  0  0  0  0  0
    3.1445    0.5183   -0.6296 H   0  0  0  0  0  0  0  0  0  0  0  0
    3.3831    0.4544    1.0984 H   0  0  0  0  0  0  0  0  0  0  0  0
    1.8937    2.3774    0.4608 H   0  0  0  0  0  0  0  0  0  0  0  0
    1.0511    1.2494    1.4877 H   0  0  0  0  0  0  0  0  0  0  0  0
    0.8265    1.4115   -1.5643 H   0  0  0  0  0  0  0  0  0  0  0  0
   -0.4021    1.9058   -0.4351 H   0  0  0  0  0  0  0  0  0  0  0  0
  1  2  1  0  0  0  0
  2  3  1  0  0  0  0
  3  4  1  0  0  0  0
  4  5  1  0  0  0  0
  5  6  1  0  0  0  0
  6  7  1  0  0  0  0
  7  8  1  0  0  0  0
  4  9  1  0  0  0  0
  8  9  1  0  0  0  0
  1 10  1  0  0  0  0
  1 11  1  0  0  0  0
  1 12  1  0  0  0  0
  2 13  1  0  0  0  0
  2 14  1  0  0  0  0
  3 15  1  0  0  0  0
  3 16  1  0  0  0  0
  4 17  1  0  0  0  0
  5 18  1  0  0  0  0
  5 19  1  0  0  0  0
  6 20  1  0  0  0  0
  6 21  1  0  0  0  0
  7 22  1  0  0  0  0
  7 23  1  0  0  0  0
  8 24  1  0  0  0  0
  8 25  1  0  0  0  0
  9 26  1  0  0  0  0
  9 27  1  0  0  0  0
M  CHG  1   1   1
M  END
