 xtb: 6.5.1 (fef0646)
          02032320423D

 21 19  0     0  0            999 V2000
   -0.8963   -1.6312   -0.4600 N   0  0  0  0  0  0  0  0  0  0  0  0
    0.2802   -1.1171    0.3012 C   0  0  0  0  0  0  0  0  0  0  0  0
    0.6833    0.2848   -0.1408 C   0  0  0  0  0  0  0  0  0  0  0  0
    1.8230    0.8876    0.6860 C   0  0  0  0  0  0  0  0  0  0  0  0
    3.1436    0.1156    0.5982 C   0  0  0  0  0  0  0  0  0  0  0  0
    3.7230    0.0678   -0.8083 C   0  0  0  0  0  0  0  0  0  0  0  0
   -3.4951    0.6845   -0.0091 Cl  0  0  0  0  0  0  0  0  0  0  0  0
   -1.1837   -2.5716   -0.1457 H   0  0  0  0  0  0  0  0  0  0  0  0
   -0.6891   -1.6822   -1.4664 H   0  0  0  0  0  0  0  0  0  0  0  0
   -1.7033   -0.9989   -0.3451 H   0  0  0  0  0  0  0  0  0  0  0  0
    1.1233   -1.8074    0.1842 H   0  0  0  0  0  0  0  0  0  0  0  0
    0.0534   -1.1135    1.3740 H   0  0  0  0  0  0  0  0  0  0  0  0
   -0.1979    0.9370   -0.0924 H   0  0  0  0  0  0  0  0  0  0  0  0
    0.9580    0.2670   -1.2014 H   0  0  0  0  0  0  0  0  0  0  0  0
    1.5036    0.9556    1.7339 H   0  0  0  0  0  0  0  0  0  0  0  0
    1.9972    1.9246    0.3717 H   0  0  0  0  0  0  0  0  0  0  0  0
    3.0002   -0.9036    0.9784 H   0  0  0  0  0  0  0  0  0  0  0  0
    3.8774    0.5662    1.2809 H   0  0  0  0  0  0  0  0  0  0  0  0
    3.0629   -0.4619   -1.4969 H   0  0  0  0  0  0  0  0  0  0  0  0
    4.6903   -0.4390   -0.8358 H   0  0  0  0  0  0  0  0  0  0  0  0
    3.8687    1.0725   -1.2095 H   0  0  0  0  0  0  0  0  0  0  0  0
  1  2  1  0  0  0  0
  2  3  1  0  0  0  0
  3  4  1  0  0  0  0
  4  5  1  0  0  0  0
  5  6  1  0  0  0  0
  1  8  1  0  0  0  0
  1  9  1  0  0  0  0
  1 10  1  0  0  0  0
  2 11  1  0  0  0  0
  2 12  1  0  0  0  0
  3 13  1  0  0  0  0
  3 14  1  0  0  0  0
  4 15  1  0  0  0  0
  4 16  1  0  0  0  0
  5 17  1  0  0  0  0
  5 18  1  0  0  0  0
  6 19  1  0  0  0  0
  6 20  1  0  0  0  0
  6 21  1  0  0  0  0
M  END
