 xtb: 6.5.1 (fef0646)
          01242310113D

 41 40  0     0  0            999 V2000
   -2.9048   -2.6467    0.3117 N   0  0  0  0  0  0  0  0  0  0  0  0
   -2.5560   -1.6194   -0.7106 C   0  0  0  0  0  0  0  0  0  0  0  0
   -3.4615   -0.3938   -0.6501 C   0  0  0  0  0  0  0  0  0  0  0  0
   -3.3785    0.3796    0.6677 C   0  0  0  0  0  0  0  0  0  0  0  0
   -1.9995    0.9745    0.9703 C   0  0  0  0  0  0  0  0  0  0  0  0
   -1.5506    2.0263   -0.0457 C   0  0  0  0  0  0  0  0  0  0  0  0
   -0.2661    2.7595    0.3521 C   0  0  0  0  0  0  0  0  0  0  0  0
    0.9845    1.8762    0.4020 C   0  0  0  0  0  0  0  0  0  0  0  0
    1.3770    1.2905   -0.9561 C   0  0  0  0  0  0  0  0  0  0  0  0
    2.7506    0.6122   -0.9617 C   0  0  0  0  0  0  0  0  0  0  0  0
    2.8321   -0.6378   -0.0844 C   0  0  0  0  0  0  0  0  0  0  0  0
    4.2023   -1.3174   -0.1401 C   0  0  0  0  0  0  0  0  0  0  0  0
    4.2874   -2.5621    0.7293 C   0  0  0  0  0  0  0  0  0  0  0  0
   -2.3243   -3.4948    0.2193 H   0  0  0  0  0  0  0  0  0  0  0  0
   -3.8896   -2.9373    0.2195 H   0  0  0  0  0  0  0  0  0  0  0  0
   -2.7778   -2.2902    1.2705 H   0  0  0  0  0  0  0  0  0  0  0  0
   -2.6124   -2.0779   -1.7063 H   0  0  0  0  0  0  0  0  0  0  0  0
   -1.5085   -1.3223   -0.5881 H   0  0  0  0  0  0  0  0  0  0  0  0
   -4.4965   -0.7151   -0.8211 H   0  0  0  0  0  0  0  0  0  0  0  0
   -3.2330    0.2807   -1.4839 H   0  0  0  0  0  0  0  0  0  0  0  0
   -3.6875   -0.2766    1.4901 H   0  0  0  0  0  0  0  0  0  0  0  0
   -4.1181    1.1903    0.6630 H   0  0  0  0  0  0  0  0  0  0  0  0
   -1.2545    0.1742    1.0317 H   0  0  0  0  0  0  0  0  0  0  0  0
   -2.0073    1.4297    1.9687 H   0  0  0  0  0  0  0  0  0  0  0  0
   -2.3615    2.7533   -0.1801 H   0  0  0  0  0  0  0  0  0  0  0  0
   -1.4217    1.5628   -1.0295 H   0  0  0  0  0  0  0  0  0  0  0  0
   -0.4197    3.2374    1.3276 H   0  0  0  0  0  0  0  0  0  0  0  0
   -0.0848    3.5873   -0.3449 H   0  0  0  0  0  0  0  0  0  0  0  0
    0.8405    1.0693    1.1285 H   0  0  0  0  0  0  0  0  0  0  0  0
    1.8286    2.4596    0.7908 H   0  0  0  0  0  0  0  0  0  0  0  0
    1.3611    2.0930   -1.7042 H   0  0  0  0  0  0  0  0  0  0  0  0
    0.6156    0.5752   -1.2865 H   0  0  0  0  0  0  0  0  0  0  0  0
    3.5130    1.3311   -0.6398 H   0  0  0  0  0  0  0  0  0  0  0  0
    3.0286    0.3437   -1.9885 H   0  0  0  0  0  0  0  0  0  0  0  0
    2.0561   -1.3504   -0.3870 H   0  0  0  0  0  0  0  0  0  0  0  0
    2.5965   -0.3810    0.9543 H   0  0  0  0  0  0  0  0  0  0  0  0
    4.9752   -0.5979    0.1587 H   0  0  0  0  0  0  0  0  0  0  0  0
    4.4388   -1.5707   -1.1814 H   0  0  0  0  0  0  0  0  0  0  0  0
    5.2723   -3.0314    0.6767 H   0  0  0  0  0  0  0  0  0  0  0  0
    3.5528   -3.3089    0.4238 H   0  0  0  0  0  0  0  0  0  0  0  0
    4.0930   -2.3270    1.7771 H   0  0  0  0  0  0  0  0  0  0  0  0
  1  2  1  0  0  0  0
  2  3  1  0  0  0  0
  3  4  1  0  0  0  0
  4  5  1  0  0  0  0
  5  6  1  0  0  0  0
  6  7  1  0  0  0  0
  7  8  1  0  0  0  0
  8  9  1  0  0  0  0
  9 10  1  0  0  0  0
 10 11  1  0  0  0  0
 11 12  1  0  0  0  0
 12 13  1  0  0  0  0
  1 14  1  0  0  0  0
  1 15  1  0  0  0  0
  1 16  1  0  0  0  0
  2 17  1  0  0  0  0
  2 18  1  0  0  0  0
  3 19  1  0  0  0  0
  3 20  1  0  0  0  0
  4 21  1  0  0  0  0
  4 22  1  0  0  0  0
  5 23  1  0  0  0  0
  5 24  1  0  0  0  0
  6 25  1  0  0  0  0
  6 26  1  0  0  0  0
  7 27  1  0  0  0  0
  7 28  1  0  0  0  0
  8 29  1  0  0  0  0
  8 30  1  0  0  0  0
  9 31  1  0  0  0  0
  9 32  1  0  0  0  0
 10 33  1  0  0  0  0
 10 34  1  0  0  0  0
 11 35  1  0  0  0  0
 11 36  1  0  0  0  0
 12 37  1  0  0  0  0
 12 38  1  0  0  0  0
 13 39  1  0  0  0  0
 13 40  1  0  0  0  0
 13 41  1  0  0  0  0
M  CHG  1   1   1
M  END
