 xtb: 6.5.1 (fef0646)
          01242310103D

 16 14  0     0  0            999 V2000
    0.1441   -0.3324   -0.3638 N   0  0  0  0  0  0  0  0  0  0  0  0
   -0.9753    0.6463   -0.3111 C   0  0  0  0  0  0  0  0  0  0  0  0
   -2.3247   -0.0075   -0.6003 C   0  0  0  0  0  0  0  0  0  0  0  0
   -2.6949   -1.0392    0.4119 C   0  0  0  0  0  0  0  0  0  0  0  0
   -2.4590   -2.3272    0.2475 C   0  0  0  0  0  0  0  0  0  0  0  0
    3.1984    1.2072    0.2873 Cl  0  0  0  0  0  0  0  0  0  0  0  0
    1.0601    0.1113   -0.1718 H   0  0  0  0  0  0  0  0  0  0  0  0
    0.2012   -0.7823   -1.2959 H   0  0  0  0  0  0  0  0  0  0  0  0
    0.0102   -1.0847    0.3302 H   0  0  0  0  0  0  0  0  0  0  0  0
   -0.7829    1.4593   -1.0234 H   0  0  0  0  0  0  0  0  0  0  0  0
   -1.0009    1.1192    0.6782 H   0  0  0  0  0  0  0  0  0  0  0  0
   -2.2987   -0.4711   -1.5942 H   0  0  0  0  0  0  0  0  0  0  0  0
   -3.1144    0.7539   -0.6591 H   0  0  0  0  0  0  0  0  0  0  0  0
   -3.1233   -0.6938    1.3409 H   0  0  0  0  0  0  0  0  0  0  0  0
   -2.0044   -2.6971   -0.6520 H   0  0  0  0  0  0  0  0  0  0  0  0
   -2.7100   -3.0527    0.9995 H   0  0  0  0  0  0  0  0  0  0  0  0
  1  2  1  0  0  0  0
  2  3  1  0  0  0  0
  3  4  1  0  0  0  0
  4  5  2  0  0  0  0
  1  7  1  0  0  0  0
  1  8  1  0  0  0  0
  1  9  1  0  0  0  0
  2 10  1  0  0  0  0
  2 11  1  0  0  0  0
  3 12  1  0  0  0  0
  3 13  1  0  0  0  0
  4 14  1  0  0  0  0
  5 15  1  0  0  0  0
  5 16  1  0  0  0  0
M  END
