26
 xtb: 6.5.1 (fef0646)
N           -3.21038164151361       -0.88478556235515       -0.46690662910138
C           -2.78067076152447       -1.94215540826802        0.48813771106288
C           -1.42284156948070       -2.54081514167701        0.12695000156749
C           -0.30151137876679       -1.54339773161747        0.15862346980591
C            0.19068218060974       -1.07197324522625        1.36653191590422
C            1.21585952328125       -0.15428008533836        1.39959450583429
C            1.78957092300844        0.33351427077827        0.22342928184540
O            2.81991513749275        1.26740168319049        0.34340345237917
C            3.33991640311152        1.74004917792624       -0.88156892775733
C            1.28596275640728       -0.14405099834420       -0.98932352620110
C            0.25930947784788       -1.06073950520878       -1.01633349712270
Cl          -1.00328068307037        2.26375256348237       -0.18390625372087
H           -3.18634519750792       -1.16013482726709       -1.42891259429636
H           -2.50582758217561       -0.02697932302933       -0.42035364675072
H           -4.10920438933824       -0.44067223849110       -0.24518446666799
H           -3.55297878909595       -2.66823620003514        0.50496606785793
H           -2.73338947147214       -1.49158481994141        1.50255811635954
H           -1.48675185719190       -2.96301441967011       -0.87498328299307
H           -1.19433787688887       -3.34769258134905        0.79984991065384
H           -0.23371314533804       -1.42626381243219        2.28268782644497
H            1.60739031545677        0.20915981896723        2.33863953008214
H            4.15763211966092        2.44873494554232       -0.67092917138588
H            2.58580980459654        2.22197805455295       -1.46031838342465
H            3.79095938416530        0.89595470729213       -1.44523728453292
H            1.71686222454448        0.21136289919998       -1.91611355745954
H           -0.11070903948119       -1.40524177278574       -1.96270952709403
