 xtb: 6.5.1 (fef0646)
          02032320163D

 26 25  0     0  0            999 V2000
   -3.1603   -0.7884   -0.4575 N   0  0  0  0  0  0  0  0  0  0  0  0
   -2.7717   -1.8772    0.4831 C   0  0  0  0  0  0  0  0  0  0  0  0
   -1.4288   -2.5076    0.1221 C   0  0  0  0  0  0  0  0  0  0  0  0
   -0.2919   -1.5294    0.1553 C   0  0  0  0  0  0  0  0  0  0  0  0
    0.2022   -1.0629    1.3641 C   0  0  0  0  0  0  0  0  0  0  0  0
    1.2328   -0.1515    1.3989 C   0  0  0  0  0  0  0  0  0  0  0  0
    1.8101    0.3335    0.2233 C   0  0  0  0  0  0  0  0  0  0  0  0
    2.8484    1.2625    0.3448 O   0  0  0  0  0  0  0  0  0  0  0  0
    3.3778    1.7225   -0.8798 C   0  0  0  0  0  0  0  0  0  0  0  0
    1.3057   -0.1407   -0.9904 C   0  0  0  0  0  0  0  0  0  0  0  0
    0.2734   -1.0509   -1.0190 C   0  0  0  0  0  0  0  0  0  0  0  0
   -1.1469    2.1144   -0.1803 Cl  0  0  0  0  0  0  0  0  0  0  0  0
   -3.1718   -1.1291   -1.4281 H   0  0  0  0  0  0  0  0  0  0  0  0
   -2.4886   -0.0031   -0.4121 H   0  0  0  0  0  0  0  0  0  0  0  0
   -4.0936   -0.4097   -0.2438 H   0  0  0  0  0  0  0  0  0  0  0  0
   -3.5567   -2.6431    0.4991 H   0  0  0  0  0  0  0  0  0  0  0  0
   -2.7293   -1.4770    1.5027 H   0  0  0  0  0  0  0  0  0  0  0  0
   -1.4911   -2.9526   -0.8766 H   0  0  0  0  0  0  0  0  0  0  0  0
   -1.2011   -3.3395    0.7984 H   0  0  0  0  0  0  0  0  0  0  0  0
   -0.2316   -1.4229    2.2817 H   0  0  0  0  0  0  0  0  0  0  0  0
    1.6127    0.2091    2.3386 H   0  0  0  0  0  0  0  0  0  0  0  0
    4.1700    2.4421   -0.6701 H   0  0  0  0  0  0  0  0  0  0  0  0
    2.5995    2.2176   -1.4627 H   0  0  0  0  0  0  0  0  0  0  0  0
    3.8011    0.8886   -1.4419 H   0  0  0  0  0  0  0  0  0  0  0  0
    1.7238    0.2114   -1.9163 H   0  0  0  0  0  0  0  0  0  0  0  0
   -0.1074   -1.4014   -1.9635 H   0  0  0  0  0  0  0  0  0  0  0  0
  1  2  1  0  0  0  0
  2  3  1  0  0  0  0
  3  4  1  0  0  0  0
  4  5  4  0  0  0  0
  5  6  4  0  0  0  0
  6  7  4  0  0  0  0
  7  8  1  0  0  0  0
  8  9  1  0  0  0  0
  7 10  4  0  0  0  0
  4 11  4  0  0  0  0
 10 11  4  0  0  0  0
  1 13  1  0  0  0  0
  1 14  1  0  0  0  0
  1 15  1  0  0  0  0
  2 16  1  0  0  0  0
  2 17  1  0  0  0  0
  3 18  1  0  0  0  0
  3 19  1  0  0  0  0
  5 20  1  0  0  0  0
  6 21  1  0  0  0  0
  9 22  1  0  0  0  0
  9 23  1  0  0  0  0
  9 24  1  0  0  0  0
 10 25  1  0  0  0  0
 11 26  1  0  0  0  0
M  END
