 xtb: 6.5.1 (fef0646)
          01242310103D

 18 16  0     0  0            999 V2000
    0.3138   -1.0795   -0.0177 N   0  0  0  0  0  0  0  0  0  0  0  0
   -0.4692    0.1870   -0.0082 C   0  0  0  0  0  0  0  0  0  0  0  0
   -1.9714   -0.0653   -0.0145 C   0  0  0  0  0  0  0  0  0  0  0  0
   -2.7958    1.2226   -0.0044 C   0  0  0  0  0  0  0  0  0  0  0  0
   -4.2941    0.9617   -0.0071 C   0  0  0  0  0  0  0  0  0  0  0  0
    3.7430   -0.4214    0.0223 Cl  0  0  0  0  0  0  0  0  0  0  0  0
    0.0892   -1.6597    0.8060 H   0  0  0  0  0  0  0  0  0  0  0  0
    1.3340   -0.9058   -0.0100 H   0  0  0  0  0  0  0  0  0  0  0  0
    0.0972   -1.6448   -0.8594 H   0  0  0  0  0  0  0  0  0  0  0  0
   -0.1919    0.8002   -0.8742 H   0  0  0  0  0  0  0  0  0  0  0  0
   -0.1967    0.7843    0.8705 H   0  0  0  0  0  0  0  0  0  0  0  0
   -2.2424   -0.6849    0.8490 H   0  0  0  0  0  0  0  0  0  0  0  0
   -2.2382   -0.6689   -0.8908 H   0  0  0  0  0  0  0  0  0  0  0  0
   -2.5173    1.8383   -0.8701 H   0  0  0  0  0  0  0  0  0  0  0  0
   -2.5182    1.8242    0.8716 H   0  0  0  0  0  0  0  0  0  0  0  0
   -4.5959    0.3812    0.8678 H   0  0  0  0  0  0  0  0  0  0  0  0
   -4.5946    0.3923   -0.8896 H   0  0  0  0  0  0  0  0  0  0  0  0
   -4.8733    1.8887   -0.0017 H   0  0  0  0  0  0  0  0  0  0  0  0
  1  2  1  0  0  0  0
  2  3  1  0  0  0  0
  3  4  1  0  0  0  0
  4  5  1  0  0  0  0
  1  7  1  0  0  0  0
  1  8  1  0  0  0  0
  1  9  1  0  0  0  0
  2 10  1  0  0  0  0
  2 11  1  0  0  0  0
  3 12  1  0  0  0  0
  3 13  1  0  0  0  0
  4 14  1  0  0  0  0
  4 15  1  0  0  0  0
  5 16  1  0  0  0  0
  5 17  1  0  0  0  0
  5 18  1  0  0  0  0
M  END
