22

N          1.70181        0.90488       -0.80058
C          2.52363       -0.01870        0.00115
C          3.04452        0.64701        1.22675
C          4.35171        0.81403        1.49227
C          4.88761        1.39399        2.73860
C          4.22357        1.27669        3.96838
C          4.79748        1.77896        5.13921
C          6.04648        2.39243        5.09824
C          6.72196        2.50594        3.88612
C          6.14750        2.00714        2.71358
H          1.34771        0.44635       -1.64814
H          2.25291        1.72194       -1.08866
H          0.89431        1.24668       -0.26663
H          3.32427       -0.37436       -0.65585
H          1.88473       -0.86654        0.26721
H          2.30348        0.97045        1.95491
H          5.11042        0.49125        0.77992
H          3.26486        0.77337        4.04908
H          4.27701        1.67672        6.08870
H          6.49861        2.77042        6.01244
H          7.70405        2.97435        3.85657
H          6.70661        2.10043        1.78454
