22
0.0
N           -3.04585  -0.65259  -0.62516
C           -3.10635   0.78216  -0.23921
C           -2.23996   1.09027   0.97687
C           -0.82189   0.68931   0.78171
C           -0.41941  -0.60289   1.09164
F           -1.32698  -1.50193   1.51266
C            0.89806  -0.98915   0.89317
F            1.27999  -2.24261   1.18407
C            1.81009  -0.09074   0.36236
F            3.08234  -0.46753   0.16007
C            1.40355   1.18868   0.01826
F            2.27856   2.04734  -0.52851
C            0.08671   1.57597   0.22036
F           -0.32099   2.79810  -0.16498
Cl          -0.06874  -1.37664  -2.29710
H           -3.76104  -0.90124  -1.32512
H           -3.17528  -1.25947   0.19985
H           -2.12282  -0.88827  -1.02796
H           -4.14801   1.06509  -0.04119
H           -2.78260   1.39702  -1.08852
H           -2.63054   0.56132   1.85382
H           -2.27620   2.15923   1.21964
