21
0.0
N           -3.29115  -0.88765  -1.14579
C           -3.38618   0.37928  -0.36202
C           -2.52273   0.36296   0.89923
C           -1.05716   0.23829   0.60665
C           -0.34982   1.32205   0.07797
C            0.98443   1.21786  -0.21461
C            1.65649   0.00653   0.01796
Cl           3.30432  -0.13476  -0.34140
C            0.95385  -1.08664   0.55066
C           -0.38059  -0.96376   0.83635
H           -2.32042  -1.06706  -1.42524
H           -3.86268  -0.84576  -1.99681
H           -3.61234  -1.68572  -0.58690
H           -4.43658   0.56017  -0.10244
H           -3.08719   1.21734  -1.00189
H           -2.83462  -0.46406   1.54470
H           -2.68823   1.27147   1.48946
H           -0.86531   2.25166  -0.09462
H            1.53230   2.05182  -0.62118
H            1.47898  -2.01035   0.72933
H           -0.91738  -1.79979   1.25144
