21
 xtb: 6.5.1 (fef0646)
N           -3.31323830671073       -0.87696694288295       -1.16846261030599
C           -3.40907596076435        0.37099813544962       -0.35101501176272
C           -2.51706283460421        0.36249254954189        0.89039543819844
C           -1.05184593814434        0.24006694837818        0.59913331686997
C           -0.34405685913165        1.32225803662994        0.07014809611669
C            0.99222825757477        1.21690831191740       -0.21402400030634
C            1.66221601267998        0.00606309875142        0.02306727846255
Cl           3.31514293795927       -0.14064152362463       -0.32920516379164
C            0.95890236238040       -1.08483975111773        0.56002048767977
C           -0.37560773724540       -0.95932564755817        0.84040444243773
H           -2.35227398235613       -0.99371154485169       -1.56339159379091
H           -3.98484954327372       -0.88919901155911       -1.92729628061422
H           -3.48258837938075       -1.70485204995589       -0.54609499703449
H           -4.44209993858307        0.54448226985686       -0.08519367086375
H           -3.11169991812708        1.22172443315572       -0.99823990551576
H           -2.83092830880022       -0.46364042377068        1.54410970497111
H           -2.68638281913252        1.27174813023473        1.48652904077970
H           -0.86344483927346        2.25144861380895       -0.09885296759859
H            1.53540780335674        2.05112785940857       -0.62070775727234
H            1.48013439757583       -2.00962659540855        0.73388227732062
H           -0.91667490549019       -1.79784742310722        1.25289392249669
