 xtb: 6.5.1 (fef0646)
          01242310063D

 48 50  0     0  0            999 V2000
   -7.5674   -0.1467   -1.8235 N   0  0  0  0  0  0  0  0  0  0  0  0
   -8.1402    0.9028   -0.9391 C   0  0  0  0  0  0  0  0  0  0  0  0
   -7.5044    0.8742    0.4486 C   0  0  0  0  0  0  0  0  0  0  0  0
   -6.0230    1.0012    0.3971 C   0  0  0  0  0  0  0  0  0  0  0  0
   -5.3368    2.1724    0.3485 C   0  0  0  0  0  0  0  0  0  0  0  0
   -3.9292    2.0065    0.2870 C   0  0  0  0  0  0  0  0  0  0  0  0
   -3.5311    0.6999    0.2868 C   0  0  0  0  0  0  0  0  0  0  0  0
   -2.1664    0.2433    0.2319 C   0  0  0  0  0  0  0  0  0  0  0  0
   -1.7564   -1.0591    0.2517 C   0  0  0  0  0  0  0  0  0  0  0  0
   -0.3488   -1.2349    0.1872 C   0  0  0  0  0  0  0  0  0  0  0  0
    0.2666   -2.5905    0.2007 C   0  0  0  0  0  0  0  0  0  0  0  0
    0.3470   -0.0420    0.1155 C   0  0  0  0  0  0  0  0  0  0  0  0
    1.7807    0.1162    0.0412 C   0  0  0  0  0  0  0  0  0  0  0  0
    2.4762    1.3078   -0.0369 C   0  0  0  0  0  0  0  0  0  0  0  0
    1.8670    2.5764   -0.0562 C   0  0  0  0  0  0  0  0  0  0  0  0
    1.3289    3.6053   -0.0704 N   0  0  0  0  0  0  0  0  0  0  0  0
    3.9056    1.1436   -0.0988 C   0  0  0  0  0  0  0  0  0  0  0  0
    4.7805    2.2428   -0.1824 C   0  0  0  0  0  0  0  0  0  0  0  0
    5.5308    3.1262   -0.2518 N   0  0  0  0  0  0  0  0  0  0  0  0
    4.3177   -0.1740   -0.0682 C   0  0  0  0  0  0  0  0  0  0  0  0
    5.6822   -0.6546   -0.1140 C   0  0  0  0  0  0  0  0  0  0  0  0
    6.0910   -1.9719   -0.0858 C   0  0  0  0  0  0  0  0  0  0  0  0
    5.1888   -3.1537   -0.0030 C   0  0  0  0  0  0  0  0  0  0  0  0
    7.5101   -2.1192   -0.1439 C   0  0  0  0  0  0  0  0  0  0  0  0
    8.1803   -0.9496   -0.2156 C   0  0  0  0  0  0  0  0  0  0  0  0
    7.0917    0.3772   -0.2153 S   0  0  0  0  0  0  0  0  0  0  0  0
    2.9189   -1.1918    0.0366 S   0  0  0  0  0  0  0  0  0  0  0  0
   -0.7885    1.2855    0.1286 S   0  0  0  0  0  0  0  0  0  0  0  0
   -4.9232   -0.3438    0.3608 S   0  0  0  0  0  0  0  0  0  0  0  0
   -7.2897   -2.7131    0.4241 Cl  0  0  0  0  0  0  0  0  0  0  0  0
   -7.5890   -1.0620   -1.3382 H   0  0  0  0  0  0  0  0  0  0  0  0
   -6.5775    0.0519   -2.0330 H   0  0  0  0  0  0  0  0  0  0  0  0
   -8.0728   -0.2368   -2.7201 H   0  0  0  0  0  0  0  0  0  0  0  0
   -9.2267    0.7704   -0.8628 H   0  0  0  0  0  0  0  0  0  0  0  0
   -7.9900    1.8866   -1.3996 H   0  0  0  0  0  0  0  0  0  0  0  0
   -7.7556   -0.0676    0.9493 H   0  0  0  0  0  0  0  0  0  0  0  0
   -7.9166    1.6681    1.0827 H   0  0  0  0  0  0  0  0  0  0  0  0
   -5.8214    3.1371    0.3528 H   0  0  0  0  0  0  0  0  0  0  0  0
   -3.2312    2.8287    0.2446 H   0  0  0  0  0  0  0  0  0  0  0  0
   -2.4486   -1.8842    0.3133 H   0  0  0  0  0  0  0  0  0  0  0  0
   -0.4949   -3.3695    0.2555 H   0  0  0  0  0  0  0  0  0  0  0  0
    0.9267   -2.7072    1.0610 H   0  0  0  0  0  0  0  0  0  0  0  0
    0.8523   -2.7587   -0.7038 H   0  0  0  0  0  0  0  0  0  0  0  0
    5.7563   -4.0846   -0.0020 H   0  0  0  0  0  0  0  0  0  0  0  0
    4.5059   -3.1797   -0.8533 H   0  0  0  0  0  0  0  0  0  0  0  0
    4.5944   -3.1236    0.9111 H   0  0  0  0  0  0  0  0  0  0  0  0
    7.9955   -3.0840   -0.1307 H   0  0  0  0  0  0  0  0  0  0  0  0
    9.2481   -0.8432   -0.2668 H   0  0  0  0  0  0  0  0  0  0  0  0
  1  2  1  0  0  0  0
  2  3  1  0  0  0  0
  3  4  1  0  0  0  0
  4  5  2  0  0  0  0
  5  6  4  0  0  0  0
  6  7  2  0  0  0  0
  7  8  1  0  0  0  0
  8  9  4  0  0  0  0
  9 10  4  0  0  0  0
 10 11  1  0  0  0  0
 10 12  4  0  0  0  0
 12 13  1  0  0  0  0
 13 14  4  0  0  0  0
 14 15  1  0  0  0  0
 15 16  3  0  0  0  0
 14 17  1  0  0  0  0
 17 18  1  0  0  0  0
 18 19  3  0  0  0  0
 17 20  4  0  0  0  0
 20 21  1  0  0  0  0
 21 22  4  0  0  0  0
 22 23  1  0  0  0  0
 22 24  4  0  0  0  0
 24 25  2  0  0  0  0
 21 26  1  0  0  0  0
 25 26  1  0  0  0  0
 13 27  1  0  0  0  0
 20 27  1  0  0  0  0
  8 28  1  0  0  0  0
 12 28  1  0  0  0  0
  4 29  1  0  0  0  0
  7 29  1  0  0  0  0
  1 31  1  0  0  0  0
  1 32  1  0  0  0  0
  1 33  1  0  0  0  0
  2 34  1  0  0  0  0
  2 35  1  0  0  0  0
  3 36  1  0  0  0  0
  3 37  1  0  0  0  0
  5 38  1  0  0  0  0
  6 39  1  0  0  0  0
  9 40  1  0  0  0  0
 11 41  1  0  0  0  0
 11 42  1  0  0  0  0
 11 43  1  0  0  0  0
 23 44  1  0  0  0  0
 23 45  1  0  0  0  0
 23 46  1  0  0  0  0
 24 47  1  0  0  0  0
 25 48  1  0  0  0  0
M  END
