26
 xtb: 6.5.1 (fef0646)
N           -3.22497453468626        1.76055731513757       -1.65862485317400
C           -3.91586368286432        1.66554658329620       -0.33859966179629
C           -3.62703672145164        0.34728531038366        0.37590130454715
C           -2.17774065629723        0.13993834774031        0.62839171856938
C           -1.43605146952245        0.79558340146425        1.55615755323418
C           -0.06591445299986        0.42281311441248        1.56099411018092
C            0.25140457550681       -0.52263946557510        0.62948856410688
C            1.56646516428953       -1.07355207310999        0.40743677529345
C            1.87444448683144       -2.05210792417689       -0.49529005768658
C            3.25024578691267       -2.40575187936751       -0.50799352261849
C            3.99325710882655       -1.69996873652887        0.37672618902453
S            3.01873507495972       -0.55857865427316        1.23477136477358
S           -1.17840746057326       -0.97492931184854       -0.26790299801894
Cl           0.17260004573157        2.07886388306988       -1.58142947651086
H           -2.24964991636738        1.72998667078215       -1.57751739431976
H           -3.53822621022025        2.59914513668222       -2.17040555219862
H           -3.54545629890481        0.93413081022052       -2.25163665564825
H           -5.01691534047395        1.78910835834015       -0.44373117612890
H           -3.59976206021691        2.50365019322591        0.28823269069949
H           -4.00547487531627       -0.49042520536150       -0.20754183878559
H           -4.16496630532932        0.29650578797672        1.34468636243133
H           -1.84867316236675        1.54535501919302        2.22216984716163
H            0.66769105320257        0.85930372495640        2.22648470593265
H            1.14677275226331       -2.45132270049978       -1.18344914053983
H            3.66824811546284       -3.11231622584978       -1.20606935791565
H            5.04707384213256       -1.81839006801308        0.53640445839637
