22
1.114
N           -1.85777  -0.45275   0.70508
C           -1.60894  -1.21619  -0.54941
C           -0.30481  -2.00794  -0.49604
C            0.89962  -1.12887  -0.33512
C            1.51585  -0.98183   0.89853
C            2.60374  -0.14739   1.04752
C            3.09767   0.56219  -0.03173
F            4.17176   1.38494   0.11543
C            2.48303   0.42380  -1.26278
C            1.39544  -0.41076  -1.41248
Cl          -4.85147   1.37261   0.40991
H           -1.08939   0.20565   0.89064
H           -1.92706  -1.08510   1.51357
H           -2.73580   0.09392   0.65348
H           -1.58139  -0.52087  -1.39629
H           -2.45590  -1.88566  -0.74264
H           -0.18526  -2.61439  -1.40108
H           -0.34321  -2.72256   0.33224
H            1.13634  -1.52762   1.74533
H            3.08442  -0.03371   2.00315
H            2.86939   0.98121  -2.09781
H            0.91977  -0.51020  -2.37334
