 xtb: 6.5.1 (fef0646)
          01242317073D

 22 21  0     0  0            999 V2000
   -2.7609   -1.8781   -0.4626 N   0  0  0  0  0  0  0  0  0  0  0  0
   -1.3196   -1.5228   -0.5999 C   0  0  0  0  0  0  0  0  0  0  0  0
   -0.8254   -0.6537    0.5508 C   0  0  0  0  0  0  0  0  0  0  0  0
    0.6160   -0.2630    0.4079 C   0  0  0  0  0  0  0  0  0  0  0  0
    0.9723    0.8875   -0.2793 C   0  0  0  0  0  0  0  0  0  0  0  0
    2.2986    1.2300   -0.4392 C   0  0  0  0  0  0  0  0  0  0  0  0
    3.2986    0.4275    0.0790 C   0  0  0  0  0  0  0  0  0  0  0  0
    4.6074    0.7678   -0.0757 F   0  0  0  0  0  0  0  0  0  0  0  0
    2.9486   -0.7262    0.7568 C   0  0  0  0  0  0  0  0  0  0  0  0
    1.6225   -1.0694    0.9171 C   0  0  0  0  0  0  0  0  0  0  0  0
   -4.4703    1.1851   -0.2367 Cl  0  0  0  0  0  0  0  0  0  0  0  0
   -2.9272   -2.4134    0.3989 H   0  0  0  0  0  0  0  0  0  0  0  0
   -3.0980   -2.4381   -1.2565 H   0  0  0  0  0  0  0  0  0  0  0  0
   -3.3359   -1.0207   -0.4103 H   0  0  0  0  0  0  0  0  0  0  0  0
   -1.1568   -0.9997   -1.5494 H   0  0  0  0  0  0  0  0  0  0  0  0
   -0.7147   -2.4346   -0.6618 H   0  0  0  0  0  0  0  0  0  0  0  0
   -0.9696   -1.1780    1.5011 H   0  0  0  0  0  0  0  0  0  0  0  0
   -1.4417    0.2483    0.6238 H   0  0  0  0  0  0  0  0  0  0  0  0
    0.1996    1.5138   -0.6915 H   0  0  0  0  0  0  0  0  0  0  0  0
    2.5768    2.1234   -0.9698 H   0  0  0  0  0  0  0  0  0  0  0  0
    3.7307   -1.3491    1.1536 H   0  0  0  0  0  0  0  0  0  0  0  0
    1.3583   -1.9726    1.4403 H   0  0  0  0  0  0  0  0  0  0  0  0
  1  2  1  0  0  0  0
  2  3  1  0  0  0  0
  3  4  1  0  0  0  0
  4  5  4  0  0  0  0
  5  6  4  0  0  0  0
  6  7  4  0  0  0  0
  7  8  1  0  0  0  0
  7  9  4  0  0  0  0
  4 10  4  0  0  0  0
  9 10  4  0  0  0  0
  1 12  1  0  0  0  0
  1 13  1  0  0  0  0
  1 14  1  0  0  0  0
  2 15  1  0  0  0  0
  2 16  1  0  0  0  0
  3 17  1  0  0  0  0
  3 18  1  0  0  0  0
  5 19  1  0  0  0  0
  6 20  1  0  0  0  0
  9 21  1  0  0  0  0
 10 22  1  0  0  0  0
M  END
