  22

 N          0.2229307280        1.7672206484       -0.0000104233
 C         -1.1936336798        1.2854187464       -0.0040682298
 C         -1.5083206973        0.4677251103       -1.2762151377
 C         -0.8252425966       -0.9102415011       -1.2663708584
 C         -1.1858065314       -1.7020955117        0.0012276170
 C         -0.8341411919       -0.9057984724        1.2685419127
 C         -1.5171163872        0.4722567421        1.2687719232
 Cl         2.5752380346       -0.8808701369        0.0107281370
 H          0.4280012818        2.3340286665       -0.8339358903
 H          0.8798724268        0.9707291267        0.0033548479
 H          0.4223615081        2.3365246829        0.8335873366
 H         -1.8407717917        2.1804731408       -0.0078869597
 H         -1.2027539021        1.0374889778       -2.1624973288
 H         -2.5928646436        0.3356667056       -1.3687410793
 H          0.2621162103       -0.7827213944       -1.3222137054
 H         -1.0931490356       -1.4807432524       -2.1665445344
 H         -0.6877410028       -2.6815071136        0.0046949270
 H         -2.2608241731       -1.9214982082       -0.0021490057
 H          0.2528159557       -0.7781453724        1.3315655298
 H         -1.1083486508       -1.4731033389        2.1688373052
 H         -1.2173667630        1.0451777206        2.1550046934
 H         -2.6022762919        0.3406977513        1.3544728878
          22
        -27.51362946
 N          0.7098458903        1.8811879194        0.0609750259
 C         -0.6055501382        1.1669833024        0.0475390487
 C         -0.7861030487        0.3623808610       -1.2534001945
 C         -2.1328506069       -0.3814132587       -1.2718406324
 C         -2.2752548768       -1.2975970521       -0.0435409844
 C         -2.0915915449       -0.5027137170        1.2613309036
 C         -0.7445884189        0.2405087357        1.2700956879
 Cl         3.0584619865       -0.7058234540       -0.0318783571
 H          0.8095734531        2.5044261053       -0.7512015375
 H          1.4763216312        1.1899706189        0.0263169668
 H          0.8272968876        2.4394436705        0.9168825624
 H         -1.4108521983        1.9176293363        0.0966794578
 H          0.0347548261       -0.3581454948       -1.3358694863
 H         -0.6844671620        1.0223123641       -2.1239134264
 H         -2.2477680119       -0.9550976008       -2.2018060040
 H         -2.9511642723        0.3489672300       -1.2773702782
 H         -1.5210127171       -2.0924958556       -0.0939422085
 H         -3.2450517748       -1.8142329553       -0.0523389423
 H         -2.1781412964       -1.1621730463        2.1358350534
 H         -2.9074425648        0.2234597642        1.3622165761
 H          0.0765581896       -0.4842735865        1.2545693760
 H         -0.6117851680        0.8128952219        2.1965428720
