  22

 N         -1.7000900487        0.0748136128        0.6723260144
 C         -0.9894859788        0.0325429852       -0.6302290760
 C         -0.0853757774        1.2535674124       -0.7782644907
 C          1.1166479407        1.1935647600        0.1610097203
 C          1.9044185489       -0.0913079547       -0.0722043263
 C          1.0055934131       -1.2965989524        0.1832013117
 C         -0.1970019825       -1.2659760415       -0.7567137041
 Cl        -0.4060409110        0.0545223266        3.4541185765
 H         -2.2508734714        0.9315163831        0.7626818076
 H         -1.0553177124        0.0592972610        1.4981802499
 H         -2.3145345821       -0.7352344802        0.7813032110
 H         -1.7527835547        0.0596195143       -1.4144572636
 H         -0.6537516786        2.1650934009       -0.5919344445
 H          0.2748869803        1.2907902738       -1.8071415197
 H          0.7951089900        1.2251296600        1.2035595655
 H          1.7566539905        2.0607492579       -0.0103088843
 H          2.7662560482       -0.1237275983        0.5971978684
 H          2.2760860440       -0.1170644240       -1.0995195419
 H          0.6828005295       -1.2802286333        1.2257262257
 H          1.5657853829       -2.2202983132        0.0284186775
 H         -0.8438634074       -2.1204187847       -0.5562724965
 H          0.1585812370       -1.3520416658       -1.7842474808
