28
 xtb: 6.5.1 (fef0646)
N           -1.62722400640301       -1.51316166062564       -0.43578287872978
C           -0.99399445959496       -0.53184455815295       -1.37534126497909
C           -0.55964095414282        0.75894287875052       -0.66734110150254
C            0.91209912599689        0.80361435398962       -0.20684655625731
C            1.91017521040381        0.87434566773193       -1.38696067896003
C            3.35253748797588        1.05468442215863       -0.88037187671801
C            3.74418588858038       -0.07536914227056        0.08953894626293
C            2.74248036675333       -0.18362598136406        1.25393199031528
C            1.30552554202154       -0.35859554255244        0.73123194053907
Cl          -4.04792163455189       -0.20484428358347        1.13318381100341
H           -1.85449945648469       -2.40287080878106       -0.99816417291416
H           -2.35935421393953       -1.18117967709929        0.02563022332174
H           -0.85649006857500       -1.86704256209110        0.21540767735678
H           -1.72277717222888       -0.30057005437682       -2.17265878365803
H           -0.12252152818219       -0.94900137331071       -1.96256947629871
H           -1.21450754546682        0.88357231092256        0.18990724039893
H           -0.74145708709524        1.61986930791976       -1.31597783220303
H            1.05016334228308        1.72834274102868        0.37064443323757
H            1.63093538722892        1.67841540808481       -2.07872401030845
H            1.85437880720192       -0.04896747290501       -1.97128767719898
H            3.43927716576278        2.02410991735979       -0.36257640329228
H            4.06206566357671        1.11486065155901       -1.71710621951290
H            4.76861202536477        0.07831749795099        0.47224053501572
H            3.77815588036932       -1.02274699454330       -0.45307045285016
H            2.79648329144001        0.72580018098163        1.86776667180221
H            3.01822948769999       -1.00538520503760        1.93000440436421
H            0.58969399522411       -0.45336557607394        1.55094672740035
H            1.25029371667890       -1.30193694693564        0.16991801790421
