21
0.566
N           -4.23653  -0.06805   0.19624
C           -2.77230  -0.17454   0.48017
C           -1.90298   0.26508  -0.69533
C           -0.43358   0.15499  -0.40986
C            0.27174   1.23325   0.11999
C            1.61584   1.12542   0.40740
C            2.28964  -0.07047   0.17660
F            3.58027  -0.17593   0.44970
C            1.58912  -1.15391  -0.34514
C            0.24518  -1.04078  -0.63201
H           -4.49090   0.89913  -0.02422
H           -4.79333  -0.36862   1.00201
H           -4.49247  -0.65365  -0.60410
H           -2.52997  -1.20881   0.75145
H           -2.52926   0.42725   1.36395
H           -2.14356   1.29732  -0.96928
H           -2.14544  -0.33105  -1.58104
H           -0.24210   2.16229   0.30343
H            2.16757   1.95712   0.81293
H            2.12017  -2.07490  -0.51882
H           -0.28887  -1.88456  -1.03660
