36
 xtb: 6.5.1 (fef0646)
N           -6.27571402618367       -0.09107495635471        1.15273718794952
C           -4.78624719219867       -0.13625029369898        1.20409674172537
C           -4.13961997649241        0.71693397286376        0.11897777386719
C           -2.64031141647171        0.67076495224200        0.16281398001545
C           -1.93985488367403       -0.29131705340358       -0.54978148350040
C           -0.56508025577782       -0.35954069587455       -0.48291536916507
C            0.15831066733475        0.53395747421404        0.30749014441607
C            1.61103580925709        0.48819145178212        0.41197713266441
C            2.42145956816187       -0.22368681692044       -0.38479696139571
C            3.87282199049212       -0.28163598123110       -0.27664982968901
C            4.57180896013252        0.33620660646292        0.76042406294494
C            5.94770651455963        0.25152978378155        0.85163087431208
F            6.60640381091557        0.85922954020381        1.87711240321850
C            6.64874240157572       -0.45594901388793       -0.11035911821473
C            5.97948838370631       -1.07118189318169       -1.14801877024868
C            4.60672199600936       -0.98797135461124       -1.23155146078973
C           -0.55450196935010        1.49021610025891        1.03140333697605
C           -1.92850565724848        1.55509901211028        0.96001031027843
Cl          -7.12652589125498       -1.20804581438160       -2.15873376815768
H           -6.60123601549918       -0.42300893544356        0.20114618615702
H           -6.63314448807250        0.86660450409666        1.24357145780185
H           -6.72209631942712       -0.68696439996752        1.84225205521826
H           -4.44457917488563       -1.16504856963838        1.11124857580449
H           -4.46101581957265        0.20930612110442        2.18498295208565
H           -4.47283128351728        1.75928406568982        0.20420348473217
H           -4.48250018764567        0.39245045195928       -0.87242397985222
H           -2.48864149641836       -1.01126210060521       -1.13465298925749
H           -0.05009171880513       -1.14371034098498       -1.01259955813344
H            2.05285221053286        1.11684061383226        1.15991559585933
H            1.98084583937218       -0.84076214643912       -1.15193491954747
H            4.04401891388865        0.83781225058996        1.55055935545789
H            7.72245143381294       -0.47712587968666       -0.05291581419589
H            6.53709188273124       -1.57242747000715       -1.92209538069519
H            4.08878901459222       -1.45500837307875       -2.05212194370854
H           -0.01144532756125        2.20039409375802        1.63040777712887
H           -2.46051705736483        2.31233698306434        1.50797385777397
