 xtb: 6.5.1 (fef0646)
          01242316593D

 34 34  0     0  0            999 V2000
    4.1609   -1.4027   -0.0508 N   0  0  0  0  0  0  0  0  0  0  0  0
    3.7029   -1.1520   -1.4470 C   0  0  0  0  0  0  0  0  0  0  0  0
    2.6682   -0.0311   -1.5193 C   0  0  0  0  0  0  0  0  0  0  0  0
    1.4742   -0.2838   -0.6491 C   0  0  0  0  0  0  0  0  0  0  0  0
    0.4176   -1.0609   -1.1020 C   0  0  0  0  0  0  0  0  0  0  0  0
   -0.6643   -1.3174   -0.2904 C   0  0  0  0  0  0  0  0  0  0  0  0
    1.4273    0.2150    0.6451 C   0  0  0  0  0  0  0  0  0  0  0  0
    0.3472   -0.0375    1.4598 C   0  0  0  0  0  0  0  0  0  0  0  0
   -0.7202   -0.8036    1.0013 C   0  0  0  0  0  0  0  0  0  0  0  0
   -1.8280   -1.0383    1.8167 N   0  0  0  0  0  0  0  0  0  0  0  0
   -3.0005   -0.7820    1.4819 N   0  0  0  0  0  0  0  0  0  0  0  0
   -3.3422   -0.1001    0.3130 C   0  0  0  0  0  0  0  0  0  0  0  0
   -2.7847    1.1425    0.0247 C   0  0  0  0  0  0  0  0  0  0  0  0
   -3.1046    1.8014   -1.1414 C   0  0  0  0  0  0  0  0  0  0  0  0
   -3.9902    1.2333   -2.0367 C   0  0  0  0  0  0  0  0  0  0  0  0
   -4.5561    0.0036   -1.7609 C   0  0  0  0  0  0  0  0  0  0  0  0
   -4.2369   -0.6585   -0.5960 C   0  0  0  0  0  0  0  0  0  0  0  0
    4.5423    1.7570    1.4771 Cl  0  0  0  0  0  0  0  0  0  0  0  0
    4.9477   -2.0650   -0.0080 H   0  0  0  0  0  0  0  0  0  0  0  0
    3.3944   -1.7831    0.5203 H   0  0  0  0  0  0  0  0  0  0  0  0
    4.4558   -0.5175    0.3946 H   0  0  0  0  0  0  0  0  0  0  0  0
    3.2800   -2.0752   -1.8599 H   0  0  0  0  0  0  0  0  0  0  0  0
    4.5655   -0.9117   -2.0802 H   0  0  0  0  0  0  0  0  0  0  0  0
    2.3366    0.1222   -2.5528 H   0  0  0  0  0  0  0  0  0  0  0  0
    3.1315    0.9148   -1.2191 H   0  0  0  0  0  0  0  0  0  0  0  0
    0.4522   -1.4636   -2.1000 H   0  0  0  0  0  0  0  0  0  0  0  0
   -1.4865   -1.9131   -0.6468 H   0  0  0  0  0  0  0  0  0  0  0  0
    2.2557    0.7986    1.0107 H   0  0  0  0  0  0  0  0  0  0  0  0
    0.3110    0.3573    2.4602 H   0  0  0  0  0  0  0  0  0  0  0  0
   -2.0922    1.5749    0.7256 H   0  0  0  0  0  0  0  0  0  0  0  0
   -2.6621    2.7604   -1.3563 H   0  0  0  0  0  0  0  0  0  0  0  0
   -4.2398    1.7494   -2.9494 H   0  0  0  0  0  0  0  0  0  0  0  0
   -5.2476   -0.4394   -2.4592 H   0  0  0  0  0  0  0  0  0  0  0  0
   -4.6689   -1.6190   -0.3753 H   0  0  0  0  0  0  0  0  0  0  0  0
  1  2  1  0  0  0  0
  2  3  1  0  0  0  0
  3  4  1  0  0  0  0
  4  5  4  0  0  0  0
  5  6  4  0  0  0  0
  4  7  4  0  0  0  0
  7  8  4  0  0  0  0
  6  9  4  0  0  0  0
  8  9  4  0  0  0  0
  9 10  1  0  0  0  0
 10 11  2  0  0  0  0
 11 12  1  0  0  0  0
 12 13  4  0  0  0  0
 13 14  4  0  0  0  0
 14 15  4  0  0  0  0
 15 16  4  0  0  0  0
 12 17  4  0  0  0  0
 16 17  4  0  0  0  0
  1 19  1  0  0  0  0
  1 20  1  0  0  0  0
  1 21  1  0  0  0  0
  2 22  1  0  0  0  0
  2 23  1  0  0  0  0
  3 24  1  0  0  0  0
  3 25  1  0  0  0  0
  5 26  1  0  0  0  0
  6 27  1  0  0  0  0
  7 28  1  0  0  0  0
  8 29  1  0  0  0  0
 13 30  1  0  0  0  0
 14 31  1  0  0  0  0
 15 32  1  0  0  0  0
 16 33  1  0  0  0  0
 17 34  1  0  0  0  0
M  END
