  11

 N         -1.2015207151       -0.2534095286       -0.0000000174
 C          0.0467703126        0.5699489718        0.0000000109
 C          1.3171835688       -0.2628290529        0.0000000474
 H         -2.0458840486        0.3377281348       -0.0000000996
 H         -1.2486849448       -0.8597073994        0.8312401583
 H         -1.2486848401       -0.8597074922       -0.8312401303
 H          0.0311962271        1.2358177041        0.8757021757
 H          0.0311962751        1.2358177052       -0.8757021542
 H          1.3673523751       -0.9083212554        0.8793048570
 H          2.2159665040        0.3596016674        0.0000001662
 H          1.3673525131       -0.9083211260       -0.8793048502
          11
        -10.83721243
 N         -1.2036557027       -0.2411236766       -0.0000272887
 C          0.0498741615        0.5746599999       -0.0000484707
 C          1.3149972365       -0.2658293832        0.0000282761
 H         -2.0443491592        0.3550514673        0.0050797021
 H         -1.2522250368       -0.8498000466        0.8294701896
 H         -1.2575035146       -0.8433413955       -0.8335002666
 H          0.0379491026        1.2409544300        0.8756000746
 H          0.0380378510        1.2388952853       -0.8769522767
 H          1.3599021407       -0.9150941173       -0.8767728463
 H          1.3629572079       -0.9074488494        0.8820714699
 H          2.2173546055        0.3513680684       -0.0043761614
