19
2.193
N            0.01682  -0.99239   1.10245
C           -0.94263  -1.59468   0.14446
C           -1.26181  -0.65921  -1.02006
C           -2.18619   0.51986  -0.67680
C           -1.51414   1.71193   0.01373
O           -1.33185   1.54067   1.40972
Cl           2.96533  -0.28301  -0.57188
H            0.17278  -1.57328   1.94304
H           -0.36826  -0.08089   1.39607
H            0.93208  -0.80740   0.65087
H           -1.86944  -1.86355   0.66530
H           -0.52732  -2.54230  -0.22431
H           -1.71824  -1.24827  -1.82808
H           -0.32615  -0.27581  -1.44407
H           -3.01243   0.16824  -0.04884
H           -2.66091   0.87530  -1.60217
H           -2.11915   2.61769  -0.12928
H           -0.53978   1.91395  -0.44778
H           -0.99471   2.36905   1.82283
