15
0.076
N           -2.63810   0.01490   0.71814
C           -1.83684  -0.16714  -0.52968
C           -0.37954  -0.23660  -0.26723
C            0.36764  -1.38751  -0.06409
C            1.72417  -1.14304   0.17026
C            2.05340   0.19763   0.15380
S            0.65799   1.14252  -0.15575
H           -3.64119   0.06453   0.51520
H           -2.36143   0.87917   1.19296
H           -2.47576  -0.76355   1.36330
H           -2.03762   0.66307  -1.21776
H           -2.16077  -1.07770  -1.04731
H           -0.05942  -2.37897  -0.08923
H            2.44667  -1.92853   0.34618
H            3.03566   0.60507   0.30934
