24
2.157
N           -3.73582  -1.29082  -0.24939
C           -3.34400   0.14951  -0.30840
C           -1.86071   0.36143  -0.60290
C           -0.94125  -0.13513   0.51650
C            0.53335   0.05722   0.29165
C            1.05819   0.66793  -0.85352
C            2.43124   0.82314  -1.01407
C            3.30454   0.36991  -0.03335
C            2.80123  -0.23882   1.10918
C            1.42828  -0.39287   1.26817
H           -3.47697  -1.77122  -1.11812
H           -4.74854  -1.39700  -0.11975
H           -3.27245  -1.77436   0.52843
H           -3.60705   0.63496   0.63813
H           -3.95079   0.64666  -1.07515
H           -1.66794   1.42602  -0.77938
H           -1.60374  -0.14838  -1.53708
H           -1.12155  -1.20085   0.68298
H           -1.21624   0.36026   1.45367
H            0.39716   1.02335  -1.62351
H            2.81896   1.29608  -1.90119
H            4.36811   0.48972  -0.15879
H            3.47506  -0.59176   1.87229
H            1.04191  -0.86472   2.15514
