24
 xtb: 6.5.1 (fef0646)
N           -3.75474064524067       -1.26645323538660       -0.25852245784578
C           -3.34181081322622        0.16708489266735       -0.27915685947982
C           -1.86221491398669        0.36460626055835       -0.60238414590995
C           -0.93511137884579       -0.19728527663661        0.48239235479670
C            0.53743507713885        0.03638902476228        0.27990627374348
C            1.06373172407043        0.63429546451450       -0.87114333654560
C            2.43576983468693        0.81338496700447       -1.01763808957055
C            3.30590404531115        0.39462505865197       -0.01811376184480
C            2.80063697880530       -0.20044627834042        1.13086730063053
C            1.42871048431871       -0.37584113072867        1.27721978058601
H           -3.54758913328343       -1.74496122975538       -1.15084058032414
H           -4.74504152835138       -1.38728300548284       -0.05279682182122
H           -3.22333737115342       -1.78913303767857        0.48081326831047
H           -3.59538293863535        0.63102489512689        0.65429183416724
H           -3.95537160745476        0.66249799122117       -1.05570653421741
H           -1.66317428500892        1.42791260669025       -0.76757315916012
H           -1.61251952583268       -0.13807152222280       -1.54420729482299
H           -1.11379146485600       -1.22381830779753        0.64933846526843
H           -1.21795798125095        0.32036844281553        1.45440795759510
H            0.39939694634386        1.00365782017516       -1.63375491556108
H            2.82092678622547        1.28977887830055       -1.90378111919982
H            4.36830790907712        0.50176655051356       -0.15135950329023
H            3.47407558738046       -0.57198215002331        1.88329583283594
H            1.04134518602885       -0.85574257340946        2.15961932722091
