  21

 N          1.3522500000       -0.0010600000       -0.2624900000
 C          2.8015900000        0.0299300000       -0.1469700000
 C          3.2276300000        1.0707900000        0.8791500000
 C          4.7541600000        1.1335000000        0.9724400000
 C          5.2237300000        2.1674200000        1.9938500000
 C          6.7421400000        2.2118500000        2.0707400000
 Cl        -1.0946300000       -0.4774800000        1.0405400000
 H          0.9620500000       -0.7122500000       -0.8946700000
 H          0.8819000000        0.8822400000       -0.5035100000
 H          0.8169800000       -0.2500000000        0.6144700000
 H          3.1924600000        0.2698300000       -1.1412600000
 H          3.1303800000       -0.9751200000        0.1346400000
 H          2.8065800000        0.8226100000        1.8609000000
 H          2.8354000000        2.0565700000        0.5994800000
 H          5.1699800000        1.3799700000       -0.0126300000
 H          5.1438100000        0.1457500000        1.2473200000
 H          4.8198400000        1.9259500000        2.9841400000
 H          4.8476700000        3.1605700000        1.7221600000
 H          7.1479500000        1.2401800000        2.3719000000
 H          7.0658800000        2.9568000000        2.8034600000
 H          7.1764200000        2.4777500000        1.1009600000
