28
0.0
N           -3.12444   1.52815  -0.58153
C           -1.96398   2.03344   0.20718
C           -0.63569   1.36588  -0.17259
C           -0.62070  -0.14305   0.16153
C            0.71404  -0.79761  -0.22957
C            1.91146  -0.09036   0.43757
C            3.21995  -0.72241   0.01143
O            3.47561  -0.72423  -1.31746
O            3.96973  -1.18520   0.84520
C            1.89897   1.41568   0.11307
C            0.56411   2.06552   0.50960
Cl          -3.75040  -1.88712   0.12166
H           -3.98920   2.03759  -0.35587
H           -3.29839   0.52702  -0.39286
H           -2.95334   1.62807  -1.59033
H           -2.14860   1.88567   1.27611
H           -1.87781   3.11711   0.06932
H           -0.50520   1.46512  -1.26095
H           -1.45689  -0.65163  -0.33105
H           -0.79255  -0.26847   1.23565
H            0.84704  -0.75344  -1.31581
H            0.72140  -1.86517   0.02162
H            1.82557  -0.21314   1.52667
H            4.33326  -1.14927  -1.46722
H            2.07029   1.54052  -0.96137
H            2.74459   1.91303   0.60337
H            0.56350   3.13646   0.27402
H            0.43485   2.00523   1.59526
