 xtb: 6.5.1 (fef0646)
          02032318013D

 28 27  0     0  0            999 V2000
   -3.1244    1.5282   -0.5815 N   0  0  0  0  0  0  0  0  0  0  0  0
   -1.9640    2.0335    0.2072 C   0  0  0  0  0  0  0  0  0  0  0  0
   -0.6357    1.3659   -0.1726 C   0  0  0  0  0  0  0  0  0  0  0  0
   -0.6207   -0.1430    0.1615 C   0  0  0  0  0  0  0  0  0  0  0  0
    0.7140   -0.7976   -0.2296 C   0  0  0  0  0  0  0  0  0  0  0  0
    1.9115   -0.0904    0.4376 C   0  0  0  0  0  0  0  0  0  0  0  0
    3.2199   -0.7224    0.0114 C   0  0  0  0  0  0  0  0  0  0  0  0
    3.4756   -0.7243   -1.3175 O   0  0  0  0  0  0  0  0  0  0  0  0
    3.9697   -1.1852    0.8452 O   0  0  0  0  0  0  0  0  0  0  0  0
    1.8990    1.4157    0.1131 C   0  0  0  0  0  0  0  0  0  0  0  0
    0.5641    2.0655    0.5096 C   0  0  0  0  0  0  0  0  0  0  0  0
   -3.7504   -1.8871    0.1217 Cl  0  0  0  0  0  0  0  0  0  0  0  0
   -3.9892    2.0376   -0.3559 H   0  0  0  0  0  0  0  0  0  0  0  0
   -3.2984    0.5270   -0.3928 H   0  0  0  0  0  0  0  0  0  0  0  0
   -2.9533    1.6281   -1.5903 H   0  0  0  0  0  0  0  0  0  0  0  0
   -2.1486    1.8857    1.2761 H   0  0  0  0  0  0  0  0  0  0  0  0
   -1.8778    3.1171    0.0693 H   0  0  0  0  0  0  0  0  0  0  0  0
   -0.5052    1.4651   -1.2610 H   0  0  0  0  0  0  0  0  0  0  0  0
   -1.4569   -0.6516   -0.3310 H   0  0  0  0  0  0  0  0  0  0  0  0
   -0.7925   -0.2685    1.2357 H   0  0  0  0  0  0  0  0  0  0  0  0
    0.8470   -0.7534   -1.3158 H   0  0  0  0  0  0  0  0  0  0  0  0
    0.7214   -1.8652    0.0216 H   0  0  0  0  0  0  0  0  0  0  0  0
    1.8256   -0.2131    1.5267 H   0  0  0  0  0  0  0  0  0  0  0  0
    4.3332   -1.1493   -1.4672 H   0  0  0  0  0  0  0  0  0  0  0  0
    2.0703    1.5405   -0.9614 H   0  0  0  0  0  0  0  0  0  0  0  0
    2.7446    1.9130    0.6034 H   0  0  0  0  0  0  0  0  0  0  0  0
    0.5635    3.1365    0.2740 H   0  0  0  0  0  0  0  0  0  0  0  0
    0.4349    2.0052    1.5953 H   0  0  0  0  0  0  0  0  0  0  0  0
  1  2  1  0  0  0  0
  2  3  1  0  0  0  0
  3  4  1  0  0  0  0
  4  5  1  0  0  0  0
  5  6  1  0  0  0  0
  6  7  1  0  0  0  0
  7  8  1  0  0  0  0
  7  9  2  0  0  0  0
  6 10  1  0  0  0  0
  3 11  1  0  0  0  0
 10 11  1  0  0  0  0
  1 13  1  0  0  0  0
  1 14  1  0  0  0  0
  1 15  1  0  0  0  0
  2 16  1  0  0  0  0
  2 17  1  0  0  0  0
  3 18  1  0  0  0  0
  4 19  1  0  0  0  0
  4 20  1  0  0  0  0
  5 21  1  0  0  0  0
  5 22  1  0  0  0  0
  6 23  1  0  0  0  0
  8 24  1  0  0  0  0
 10 25  1  0  0  0  0
 10 26  1  0  0  0  0
 11 27  1  0  0  0  0
 11 28  1  0  0  0  0
M  END
