  49

 N         -8.5146559895        1.5553775410        0.1563056797
 C         -8.6089655393        0.3718063783        1.0603262192
 C         -8.0287348548       -0.9028316570        0.4417792197
 C         -6.5443151592       -0.8910284745        0.3163844929
 C         -5.7275904384       -1.9770820187        0.4055319689
 C         -4.3521493925       -1.6842466560        0.2428821045
 C         -4.0858720125       -0.3580038325        0.0209399143
 C         -2.7928994905        0.2214311397       -0.1648653192
 C         -2.5253582278        1.5451145818       -0.4217254704
 C         -1.1564422570        1.8704626047       -0.5331644320
 C         -0.7338610052        3.2657937215       -0.8385128750
 C         -0.3146910649        0.7801589431       -0.3267239827
 C          1.1222445141        0.6896337842       -0.2705394855
 C          1.9681459811        1.8029353018       -0.2671824672
 C          3.3420861825        1.7000625869       -0.1683422658
 C          4.0006213743        0.4749746245       -0.0534197742
 C          5.4452318263        0.3825932755        0.0617139428
 C          6.2986229115        1.2467894882        0.7203718830
 C          5.8753218674        2.4371322436        1.5096822809
 C          7.6653081774        0.8735280495        0.6014909478
 C          7.8720803786       -0.2593159320       -0.1085281140
 S          6.3798469804       -0.9053509445       -0.6567668241
 C          3.1890422614       -0.6973115605       -0.0624470100
 N          3.6045253424       -1.9580519144        0.0634934153
 S          2.2979831117       -2.9314378635        0.0361436662
 N          1.1525176988       -1.7812384253       -0.1188906781
 C          1.7527044068       -0.5909024012       -0.1611870664
 S         -1.2923985248       -0.6405082604       -0.0998539814
 S         -5.5867196141        0.5215784128        0.0119988866
 H         -8.8706937846        2.4088940836        0.6030301046
 H         -9.0465051632        1.3989873899       -0.7077628663
 H         -7.5364571171        1.7167981626       -0.1069262403
 H         -9.6601898220        0.2180154205        1.3324310315
 H         -8.0864826303        0.5880606799        1.9991698614
 H         -8.4650722592       -1.0595585561       -0.5496376227
 H         -8.3217618775       -1.7748206969        1.0373394281
 H         -6.0995299767       -2.9740625683        0.5839283366
 H         -3.5756424495       -2.4315314094        0.2910998166
 H         -3.3091140298        2.2787573124       -0.5210891538
 H         -1.5856844162        3.8651164843       -1.1596411248
 H         -0.0059267265        3.2877894658       -1.6493549292
 H         -0.3116949240        3.7497979624        0.0422726913
 H          1.5415520194        2.7857319452       -0.3159249486
 H          3.9344576220        2.5965319752       -0.2128911532
 H          4.8884334119        2.2885288787        1.9475582375
 H          5.8503006097        3.3307010776        0.8859758378
 H          6.5690099478        2.6233433513        2.3293627595
 H          8.4628357923        1.4458099950        1.0502253935
 H          8.8272248554       -0.7071900698       -0.3059858594
          49
        -78.74268612
 N         -8.5661883624        1.5269719102       -0.2347293716
 C         -8.7489448786        0.2400737399        0.4985663675
 C         -8.0705214086       -0.9456511889       -0.1924632629
 C         -6.5825748408       -0.9116750118       -0.1271483639
 C         -5.7617616641       -1.9966702488       -0.0677804481
 C         -4.3826416838       -1.6797766294       -0.0268405740
 C         -4.1170457758       -0.3352566628       -0.0569139407
 C         -2.8218570774        0.2677814073       -0.0274542131
 C         -2.5511395002        1.6149372685       -0.0639646678
 C         -1.1811631942        1.9536335871       -0.0346353687
 C         -0.7559864128        3.3812585679       -0.0382354327
 C         -0.3414488788        0.8429661031       -0.0013184079
 C          1.0956780570        0.7399508831       -0.0202041857
 C          1.9489415781        1.8301200985       -0.2169005005
 C          3.3251796805        1.7115137859       -0.2360830233
 C          3.9802033675        0.4909798915       -0.0644022120
 C          5.4270532110        0.3774623370       -0.1059912132
 C          6.3632161011        1.2875116689        0.3461159732
 C          6.0526730032        2.5689298774        1.0391596037
 C          7.7014785041        0.8702987268        0.1080600378
 C          7.8089447200       -0.3381189602       -0.4905073722
 S          6.2546932748       -1.0041949527       -0.7808689545
 C          3.1591660051       -0.6614996737        0.1106109354
 N          3.5712023631       -1.9165425031        0.2918001380
 S          2.2579830887       -2.8684849962        0.4472747532
 N          1.1150803423       -1.7138787542        0.3080932171
 C          1.7210049431       -0.5385624766        0.1335618908
 S         -1.3222502113       -0.5920004162        0.0702819059
 S         -5.6229336281        0.5320076535       -0.1365848430
 H         -8.9839771196        1.4777767343       -1.1711709039
 H         -7.5665240458        1.7226205012       -0.3514249830
 H         -8.9903134513        2.3178228630        0.2658675099
 H         -9.8226039585        0.0490288679        0.6145863392
 H         -8.3519034643        0.3408092402        1.5151051698
 H         -8.3760671758       -0.9799393328       -1.2428697548
 H         -8.4182713437       -1.8860595492        0.2497268926
 H         -6.1330324242       -3.0096826016       -0.0570753840
 H         -3.6037637652       -2.4245222782        0.0223409630
 H         -3.3333715415        2.3551987352       -0.1136639392
 H         -0.3128078006        3.6564446517       -0.9950036897
 H         -0.0450223840        3.5816364480        0.7631238733
 H         -1.6104013462        4.0389846918        0.1227613306
 H          1.5272548149        2.8000177514       -0.3950380161
 H          3.9181307827        2.5853102206       -0.4394245831
 H          5.1270965089        2.4936786536        1.6095117514
 H          5.9578940807        3.3864662203        0.3245139412
 H          6.8454346507        2.8308288664        1.7396940239
 H          8.5536522683        1.4694088335        0.3904720830
 H          8.7276997864       -0.8281395353       -0.7505712873
