49

N          3.00891       -0.33146       -1.09159
C          2.52449       -0.30153        0.31582
C          3.63316       -0.70095        1.29193
C          4.79514        0.24832        1.23830
C          4.98503        1.41431        1.94887
C          6.22615        2.04087        1.62686
C          6.96392        1.33388        0.69849
C          8.28631        1.63183        0.19684
C          9.21301        0.74060       -0.29521
C         10.48085        1.33681       -0.60441
C         11.63577        0.51716       -1.08645
C         10.47260        2.71030       -0.35672
C         11.56213        3.68885       -0.52704
C         12.51046        3.55635       -1.55886
C         13.62020        4.40268       -1.73770
C         13.86296        5.55634       -0.97021
C         14.97367        6.46450       -1.30375
C         15.46425        6.83708       -2.55918
C         14.95558        6.41684       -3.90490
C         16.58360        7.72998       -2.44291
C         16.91189        8.00706       -1.13935
S         15.92228        7.16137       -0.04552
C         12.94081        5.77880        0.10150
N         12.93308        6.79912        0.97769
S         11.70253        6.53313        2.04435
N         11.05864        5.14010        1.43313
C         11.77573        4.79879        0.34710
S          8.90824        3.22213        0.15022
S          6.11475       -0.07254        0.19813
H          2.27018       -0.06280       -1.75392
H          3.35289       -1.26232       -1.36181
H          3.79250        0.32649       -1.22199
H          1.68519       -0.99971        0.37264
H          2.16321        0.71592        0.49991
H          3.96400       -1.72527        1.08415
H          3.22466       -0.70929        2.30919
H          4.28883        1.80043        2.68568
H          6.57648        2.95563        2.09774
H          9.02969       -0.32355       -0.38504
H         11.42164       -0.55288       -1.00157
H         12.53434        0.72431       -0.49833
H         11.83694        0.71566       -2.14405
H         12.39988        2.75945       -2.29315
H         14.31525        4.14033       -2.53630
H         13.98945        5.91081       -3.86550
H         15.67729        5.74221       -4.37937
H         14.82619        7.29030       -4.55186
H         17.11742        8.15099       -3.28607
H         17.69913        8.65551       -0.77943
