  49

 N          3.0089100000       -0.3314600000       -1.0915900000
 C          2.5244900000       -0.3015300000        0.3158200000
 C          3.6331600000       -0.7009500000        1.2919300000
 C          4.7951400000        0.2483200000        1.2383000000
 C          4.9850300000        1.4143100000        1.9488700000
 C          6.2261500000        2.0408700000        1.6268600000
 C          6.9639200000        1.3338800000        0.6984900000
 C          8.2863100000        1.6318300000        0.1968400000
 C          9.2130100000        0.7406000000       -0.2952100000
 C         10.4808500000        1.3368100000       -0.6044100000
 C         11.6357700000        0.5171600000       -1.0864500000
 C         10.4726000000        2.7103000000       -0.3567200000
 C         11.5621300000        3.6888500000       -0.5270400000
 C         12.5104600000        3.5563500000       -1.5588600000
 C         13.6202000000        4.4026800000       -1.7377000000
 C         13.8629600000        5.5563400000       -0.9702100000
 C         14.9736700000        6.4645000000       -1.3037500000
 C         15.4642500000        6.8370800000       -2.5591800000
 C         14.9555800000        6.4168400000       -3.9049000000
 C         16.5836000000        7.7299800000       -2.4429100000
 C         16.9118900000        8.0070600000       -1.1393500000
 S         15.9222800000        7.1613700000       -0.0455200000
 C         12.9408100000        5.7788000000        0.1015000000
 N         12.9330800000        6.7991200000        0.9776900000
 S         11.7025300000        6.5331300000        2.0443500000
 N         11.0586400000        5.1401000000        1.4331300000
 C         11.7757300000        4.7987900000        0.3471000000
 S          8.9082400000        3.2221300000        0.1502200000
 S          6.1147500000       -0.0725400000        0.1981300000
 H          2.2701800000       -0.0628000000       -1.7539200000
 H          3.3528900000       -1.2623200000       -1.3618100000
 H          3.7925000000        0.3264900000       -1.2219900000
 H          1.6851900000       -0.9997100000        0.3726400000
 H          2.1632100000        0.7159200000        0.4999100000
 H          3.9640000000       -1.7252700000        1.0841500000
 H          3.2246600000       -0.7092900000        2.3091900000
 H          4.2888300000        1.8004300000        2.6856800000
 H          6.5764800000        2.9556300000        2.0977400000
 H          9.0296900000       -0.3235500000       -0.3850400000
 H         11.4216400000       -0.5528800000       -1.0015700000
 H         12.5343400000        0.7243100000       -0.4983300000
 H         11.8369400000        0.7156600000       -2.1440500000
 H         12.3998800000        2.7594500000       -2.2931500000
 H         14.3152500000        4.1403300000       -2.5363000000
 H         13.9894500000        5.9108100000       -3.8655000000
 H         15.6772900000        5.7422100000       -4.3793700000
 H         14.8261900000        7.2903000000       -4.5518600000
 H         17.1174200000        8.1509900000       -3.2860700000
 H         17.6991300000        8.6555100000       -0.7794300000
