22
 xtb: 6.5.1 (fef0646)
N            0.69413894032502        0.35379694151974       -1.02481251476085
C           -0.40426793473661        0.97365089973431       -0.21688058741782
C           -1.70412737895770        1.18003524764741       -1.02942159697025
C           -2.42847010220843       -0.14405784047073       -1.32913019321539
C           -2.70044908357904       -0.93803778995585       -0.04049616682422
C           -1.39770893676654       -1.18109980545513        0.73910983643802
C           -0.68478286770585        0.14425810013458        1.05599983332461
Cl           3.27197604654148       -0.14577609486054        0.76938263040545
H            0.33424810778514       -0.55567898442836       -1.42986747469582
H            1.50591432242684        0.22075552601511       -0.53618400610045
H            0.85541764444034        0.94955056402552       -1.89887405606494
H           -0.06496113362291        1.97655772088009        0.07553235161121
H           -1.52983659436216        1.72377281126677       -1.96130721768848
H           -2.41656815637924        1.84134994501602       -0.45949367331981
H           -1.85097181469079       -0.74027507380822       -2.01625282022598
H           -3.40234956199186        0.03882932899489       -1.86048013592168
H           -3.20993484545691       -1.89479100430564       -0.26250710333660
H           -3.41088997269888       -0.38945980232684        0.60071240075319
H           -0.73914289261731       -1.82135663250752        0.13472541035382
H           -1.59000725160279       -1.74044127939693        1.65425932986952
H            0.26325567286143       -0.03775798994919        1.55045892610741
H           -1.29508376115087        0.73080402023168        1.74314111370334
