19
 xtb: 6.5.1 (fef0646)
N           -3.82736534048636       -1.33986666782924       -0.18907538793088
C           -3.53790456657483       -0.06093098556415        0.51559716509417
C           -2.47600636513975        0.78087575273829       -0.19738694018127
C           -1.09761167047015        0.21015416610040       -0.13346664583295
C            0.05092644677548        0.93441324029898       -0.09990334721657
C            1.23708944158666        0.13983252095288       -0.05603926583731
C            0.99342998911089       -1.18926423963216       -0.05784306968545
S           -0.71703395820487       -1.50158378329320       -0.10484243081285
Cl           4.35286636395289        1.67059608913741        0.20590667890428
H           -2.93126822748390       -1.88057801797987       -0.30911123502509
H           -4.19672749815690       -1.20687762109124       -1.14235127314006
H           -4.47661382026940       -1.97090428699083        0.31361654524720
H           -3.22430016085555       -0.28301031361675        1.52883494325122
H           -4.49232595283765        0.47559626994650        0.59688308199047
H           -2.49264946326653        1.78532497539516        0.21022839426932
H           -2.76797191774348        0.88595058868718       -1.25998130785702
H            0.02288942084219        2.03851170813314       -0.06711659590243
H            2.20882476886449        0.61908407345791        0.03173715344836
H            1.75316938505709       -1.91347502816799       -0.00752418490217
