 xtb: 6.5.1 (fef0646)
          02032320193D

 19 18  0     0  0            999 V2000
   -3.8145   -1.3814   -0.2047 N   0  0  0  0  0  0  0  0  0  0  0  0
   -3.5581   -0.0907    0.4969 C   0  0  0  0  0  0  0  0  0  0  0  0
   -2.5038    0.7665   -0.2090 C   0  0  0  0  0  0  0  0  0  0  0  0
   -1.1163    0.2232   -0.1228 C   0  0  0  0  0  0  0  0  0  0  0  0
    0.0157    0.9694   -0.0555 C   0  0  0  0  0  0  0  0  0  0  0  0
    1.2162    0.1978   -0.0014 C   0  0  0  0  0  0  0  0  0  0  0  0
    1.0000   -1.1352   -0.0295 C   0  0  0  0  0  0  0  0  0  0  0  0
   -0.6922   -1.4668   -0.1183 S   0  0  0  0  0  0  0  0  0  0  0  0
    4.3954    1.5984    0.1639 Cl  0  0  0  0  0  0  0  0  0  0  0  0
   -2.9248   -1.8873   -0.3092 H   0  0  0  0  0  0  0  0  0  0  0  0
   -4.1905   -1.2216   -1.1483 H   0  0  0  0  0  0  0  0  0  0  0  0
   -4.4721   -1.9846    0.3079 H   0  0  0  0  0  0  0  0  0  0  0  0
   -3.2325   -0.2882    1.5248 H   0  0  0  0  0  0  0  0  0  0  0  0
   -4.5014    0.4620    0.5874 H   0  0  0  0  0  0  0  0  0  0  0  0
   -2.5079    1.7820    0.2048 H   0  0  0  0  0  0  0  0  0  0  0  0
   -2.7727    0.8779   -1.2646 H   0  0  0  0  0  0  0  0  0  0  0  0
    0.0062    2.0486   -0.0498 H   0  0  0  0  0  0  0  0  0  0  0  0
    2.2002    0.6408    0.0535 H   0  0  0  0  0  0  0  0  0  0  0  0
    1.7596   -1.8933    0.0002 H   0  0  0  0  0  0  0  0  0  0  0  0
  1  2  1  0  0  0  0
  2  3  1  0  0  0  0
  3  4  1  0  0  0  0
  4  5  2  0  0  0  0
  5  6  4  0  0  0  0
  6  7  2  0  0  0  0
  4  8  1  0  0  0  0
  7  8  1  0  0  0  0
  1 10  1  0  0  0  0
  1 11  1  0  0  0  0
  1 12  1  0  0  0  0
  2 13  1  0  0  0  0
  2 14  1  0  0  0  0
  3 15  1  0  0  0  0
  3 16  1  0  0  0  0
  5 17  1  0  0  0  0
  6 18  1  0  0  0  0
  7 19  1  0  0  0  0
M  END
