19
 xtb: 6.5.1 (fef0646)
N           -1.27959576623254       -1.09797817988066       -0.38674264654398
C           -0.83132306889971       -1.17330343017708        1.03444958208431
C            0.67493627875302       -1.40298234882371        1.16850337604813
C            1.48203625310055       -0.23126956769059        0.72065964509834
C            1.99209536561076        0.73093397299939        1.53279820547231
C            2.71469033775627        1.74519710059514        0.83572985388293
C            2.75029332250585        1.54864525418869       -0.50147442642252
S            1.88697545190956        0.11757699945920       -0.93987418216128
Cl          -4.20573303343143        0.00302429136159       -0.78829384017589
H           -2.17703718444235       -0.78169731836511       -0.52834326237455
H           -1.13554676476313       -2.06607547004675       -0.83759270970050
H           -0.55358610030906       -0.51786210533349       -0.89465969302939
H           -1.36009102634173       -1.98741793586570        1.54924574117978
H           -1.07872790430372       -0.26010904036697        1.53955438202830
H            1.01296263029892       -2.29090883948319        0.61557511077084
H            0.96352191776609       -1.63014754671074        2.23500624534179
H            1.88347373291414        0.73228897509464        2.60965201321612
H            3.18684492560490        2.59548171524931        1.32162988042504
H            3.22572162157052        2.19555926109024       -1.22104997168062
