 xtb: 6.5.1 (fef0646)
          01242310093D

 19 18  0     0  0            999 V2000
   -1.1758   -1.1527   -0.3932 N   0  0  0  0  0  0  0  0  0  0  0  0
   -0.7830   -1.2039    1.0420 C   0  0  0  0  0  0  0  0  0  0  0  0
    0.7215   -1.4122    1.2002 C   0  0  0  0  0  0  0  0  0  0  0  0
    1.5108   -0.2350    0.7359 C   0  0  0  0  0  0  0  0  0  0  0  0
    2.0169    0.7363    1.5388 C   0  0  0  0  0  0  0  0  0  0  0  0
    2.7217    1.7553    0.8310 C   0  0  0  0  0  0  0  0  0  0  0  0
    2.7453    1.5558   -0.5057 C   0  0  0  0  0  0  0  0  0  0  0  0
    1.8980    0.1116   -0.9266 S   0  0  0  0  0  0  0  0  0  0  0  0
   -4.3955    0.0649   -0.8292 Cl  0  0  0  0  0  0  0  0  0  0  0  0
   -2.1414   -0.7963   -0.5373 H   0  0  0  0  0  0  0  0  0  0  0  0
   -1.1059   -2.0827   -0.8353 H   0  0  0  0  0  0  0  0  0  0  0  0
   -0.5186   -0.5354   -0.8922 H   0  0  0  0  0  0  0  0  0  0  0  0
   -1.3469   -1.9966    1.5499 H   0  0  0  0  0  0  0  0  0  0  0  0
   -1.0710   -0.2683    1.5368 H   0  0  0  0  0  0  0  0  0  0  0  0
    1.0318   -2.2953    0.6303 H   0  0  0  0  0  0  0  0  0  0  0  0
    0.9754   -1.6261    2.2458 H   0  0  0  0  0  0  0  0  0  0  0  0
    1.8936    0.7346    2.6117 H   0  0  0  0  0  0  0  0  0  0  0  0
    3.1878    2.6002    1.3181 H   0  0  0  0  0  0  0  0  0  0  0  0
    3.2196    2.1987   -1.2244 H   0  0  0  0  0  0  0  0  0  0  0  0
  1  2  1  0  0  0  0
  2  3  1  0  0  0  0
  3  4  1  0  0  0  0
  4  5  2  0  0  0  0
  5  6  4  0  0  0  0
  6  7  2  0  0  0  0
  4  8  1  0  0  0  0
  7  8  1  0  0  0  0
  1 10  1  0  0  0  0
  1 11  1  0  0  0  0
  1 12  1  0  0  0  0
  2 13  1  0  0  0  0
  2 14  1  0  0  0  0
  3 15  1  0  0  0  0
  3 16  1  0  0  0  0
  5 17  1  0  0  0  0
  6 18  1  0  0  0  0
  7 19  1  0  0  0  0
M  END
