28
 xtb: 6.5.1 (fef0646)
N           -2.69329383213891        1.26674516621020        1.04465753469574
C           -1.66484535361722        1.77755937917083        0.07536357806927
C           -2.27105518531417        1.92869429540997       -1.31816190783149
C           -0.44898002621063        0.88006911855844        0.04442930035612
C           -0.60756484063171       -0.51451744062726       -0.05265150815262
C            0.46679027031251       -1.34955323387940       -0.09188623695546
C            0.81569054507950        1.40228827758223        0.08578406564740
C            1.95723597999423        0.56771460659135        0.04704613396606
C            1.78001123532661       -0.83325354581180       -0.03971998057249
C            2.91879503416820       -1.67014431113448       -0.07489318163287
C            4.17210022422747       -1.13771525738493       -0.02813188229234
C            4.34962557412962        0.25030485120012        0.05545261795129
C            3.27260406633678        1.08491636919684        0.09266350819822
Cl          -3.88255819253598       -1.51757702265817        0.03562252750635
H           -3.42186488836244        2.04729423580271        1.17504993489882
H           -2.21526917553188        1.24332532413305        2.00766205055602
H           -3.06549390042561        0.46138279379290        0.80425643641449
H           -1.29102328763225        2.81001810236572        0.36826551091740
H           -2.65091502831585        0.95352468053836       -1.64462539496620
H           -1.56596814486499        2.27448377614994       -2.05717228004689
H           -3.12934084912745        2.61161141534260       -1.30794617291156
H           -1.61169546691391       -0.89813597633472       -0.09748907556351
H            0.31148129938230       -2.40329497496511       -0.16539191134803
H            0.96621344124726        2.47365074469042        0.15342713462264
H            2.76691329711655       -2.73775619518216       -0.14756806172183
H            5.02415020865137       -1.79656184353947       -0.06089774406623
H            5.35004866890352        0.64301429648346        0.09523667580010
H            3.42076667977260        2.14549263440507        0.16653820435147
