28
 xtb: 6.5.1 (fef0646)
N           -2.60228176469618        1.50817829517998        1.13038279329089
C           -1.61915549683160        1.88356613126935        0.06403155843709
C           -2.29004901075589        1.95765670616024       -1.30220793479860
C           -0.43754416039573        0.94268414355160        0.04825373316065
C           -0.63343588031096       -0.44898901552864       -0.03503524878803
C            0.42301897242973       -1.30843906618949       -0.07215204418077
C            0.83981621009445        1.43365844795570        0.08622700033357
C            1.96077144429298        0.57339132171783        0.04946324641325
C            1.74940175112486       -0.82335056428967       -0.03106612328719
C            2.87085608942162       -1.68390749402221       -0.07080528495940
C            4.13574621704097       -1.17765152227585       -0.03306447342346
C            4.34521921084163        0.20641719613724        0.04629485049434
C            3.28664905196847        1.06383318084136        0.08674900866685
Cl          -3.88398652439718       -1.84914791572827       -0.05610773793173
H           -3.39659488144618        2.11503440632627        1.18640719745766
H           -2.17922138546364        1.33625689697381        2.02871253780076
H           -3.03963904360282        0.52287428309708        0.85992002661133
H           -1.26395847571129        2.84294975845130        0.33925810809495
H           -2.66567962706006        0.95844103541602       -1.61872512433210
H           -1.57906649276033        2.26561664744261       -2.06759524256454
H           -3.13044180203641        2.62542493933434       -1.30530746772612
H           -1.62176524956440       -0.87414576962875       -0.09121344786375
H            0.29085032637055       -2.39037469354860       -0.15764235401255
H            0.98075709116936        2.48184088244059        0.15156371470367
H            2.74657428223675       -2.74089497353047       -0.14574408502825
H            5.00941668819811       -1.81358789383787       -0.06348396703838
H            5.35137930895785        0.62389727426216        0.09079782170209
H            3.43124555182347        2.13856024904041        0.16397036978864
