 xtb: 6.5.1 (fef0646)
          01242317153D

 28 28  0     0  0            999 V2000
   -2.6356    1.4046    1.0991 N   0  0  0  0  0  0  0  0  0  0  0  0
   -1.6383    1.8247    0.0627 C   0  0  0  0  0  0  0  0  0  0  0  0
   -2.2881    1.9226   -1.3122 C   0  0  0  0  0  0  0  0  0  0  0  0
   -0.4423    0.9024    0.0432 C   0  0  0  0  0  0  0  0  0  0  0  0
   -0.6158   -0.4909   -0.0542 C   0  0  0  0  0  0  0  0  0  0  0  0
    0.4530   -1.3344   -0.0933 C   0  0  0  0  0  0  0  0  0  0  0  0
    0.8273    1.4120    0.0913 C   0  0  0  0  0  0  0  0  0  0  0  0
    1.9611    0.5690    0.0526 C   0  0  0  0  0  0  0  0  0  0  0  0
    1.7715   -0.8299   -0.0405 C   0  0  0  0  0  0  0  0  0  0  0  0
    2.9056   -1.6734   -0.0804 C   0  0  0  0  0  0  0  0  0  0  0  0
    4.1624   -1.1490   -0.0312 C   0  0  0  0  0  0  0  0  0  0  0  0
    4.3506    0.2372    0.0600 C   0  0  0  0  0  0  0  0  0  0  0  0
    3.2793    1.0784    0.1011 C   0  0  0  0  0  0  0  0  0  0  0  0
   -3.9173   -1.6745   -0.0085 Cl  0  0  0  0  0  0  0  0  0  0  0  0
   -3.4063    2.0858    1.1812 H   0  0  0  0  0  0  0  0  0  0  0  0
   -2.1919    1.3001    2.0210 H   0  0  0  0  0  0  0  0  0  0  0  0
   -3.0486    0.4965    0.8420 H   0  0  0  0  0  0  0  0  0  0  0  0
   -1.2747    2.8255    0.3471 H   0  0  0  0  0  0  0  0  0  0  0  0
   -2.6616    0.9492   -1.6286 H   0  0  0  0  0  0  0  0  0  0  0  0
   -1.5761    2.2616   -2.0654 H   0  0  0  0  0  0  0  0  0  0  0  0
   -3.1317    2.6130   -1.3075 H   0  0  0  0  0  0  0  0  0  0  0  0
   -1.6151   -0.8896   -0.0988 H   0  0  0  0  0  0  0  0  0  0  0  0
    0.3046   -2.3984   -0.1667 H   0  0  0  0  0  0  0  0  0  0  0  0
    0.9724    2.4761    0.1561 H   0  0  0  0  0  0  0  0  0  0  0  0
    2.7614   -2.7383   -0.1512 H   0  0  0  0  0  0  0  0  0  0  0  0
    5.0200   -1.8015   -0.0629 H   0  0  0  0  0  0  0  0  0  0  0  0
    5.3511    0.6371    0.0974 H   0  0  0  0  0  0  0  0  0  0  0  0
    3.4244    2.1432    0.1709 H   0  0  0  0  0  0  0  0  0  0  0  0
  1  2  1  0  0  0  0
  2  3  1  0  0  0  0
  2  4  1  0  0  0  0
  4  5  4  0  0  0  0
  5  6  2  0  0  0  0
  4  7  2  0  0  0  0
  7  8  4  0  0  0  0
  6  9  4  0  0  0  0
  8  9  4  0  0  0  0
  9 10  4  0  0  0  0
 10 11  2  0  0  0  0
 11 12  4  0  0  0  0
  8 13  4  0  0  0  0
 12 13  2  0  0  0  0
  1 15  1  0  0  0  0
  1 16  1  0  0  0  0
  1 17  1  0  0  0  0
  2 18  1  0  0  0  0
  3 19  1  0  0  0  0
  3 20  1  0  0  0  0
  3 21  1  0  0  0  0
  5 22  1  0  0  0  0
  6 23  1  0  0  0  0
  7 24  1  0  0  0  0
 10 25  1  0  0  0  0
 11 26  1  0  0  0  0
 12 27  1  0  0  0  0
 13 28  1  0  0  0  0
M  END
