40
 xtb: 6.5.1 (fef0646)
N           -3.85672816918039        0.71266801751986       -0.31151076696985
C           -3.19031361771752        1.94579850687804        0.20997303147384
C           -2.15684636782836        1.68830655682064        1.30586581499222
C           -0.92182467124616        0.92959452758702        0.82164716346311
C            0.14205499004087        0.76672853217148        1.90221170702859
N            1.30387488108053        0.00377586682525        1.43296589853410
C            1.45663826962438       -1.45803375790386        1.66600638082750
C            2.66840963066581       -1.85017879090293        0.72648024729192
C            2.34640862486775       -2.88905748261935       -0.30758894294768
C            1.14609591391377       -3.45362315704687       -0.43071296465742
C            0.05303224723617       -3.11824043035562        0.45030233089670
C            0.18497011168724       -2.21709228578187        1.41931198907011
C            2.24960026205713        0.49886897622768        0.52255711223347
C            3.09097223032228       -0.53807801589405        0.09552095326015
C            4.10647656277754       -0.28247568174638       -0.80153547975325
C            4.28205937857905        1.00843615928118       -1.27346620882568
C            3.44945078147896        2.03487102490357       -0.85244577098291
C            2.43036292134054        1.79202210136604        0.04519685944339
Cl          -6.11029438702791        1.37753550158124       -2.48387715543677
H           -4.54807396309931        0.86733423895943       -0.95785379059734
H           -4.24341107168565        0.15953515986924        0.52373070051474
H           -3.11737001646163        0.05437329940731       -0.69161233060055
H           -3.95932247076450        2.61182255601356        0.60365703793143
H           -2.71213354625041        2.46373651832184       -0.60799481241473
H           -2.59428630048930        1.16107487264384        2.16029343683537
H           -1.81262740625518        2.66318104224519        1.75005310275387
H           -0.47108672978239        1.44679042980150       -0.02841564393172
H           -1.20297844435264       -0.04818614012325        0.46539457186459
H           -0.25845260308266        0.26361310856463        2.79257667905422
H            0.50790585474870        1.74237654865997        2.26906564617267
H            1.75833013068228       -1.59560408857677        2.71985501155763
H            3.50328074719324       -2.22338396380311        1.34276353228722
H            3.12903232204816       -3.16164042751988       -1.00063891367079
H            0.97227210436140       -4.18225960956589       -1.20634827509343
H           -0.89040656455278       -3.61778449844138        0.31414215471810
H           -0.65245345816793       -1.99579762636273        2.05761062914285
H            4.74627233269308       -1.08592532841704       -1.13418698313841
H            5.07165312291599        1.21507671484262       -1.98060947650642
H            3.60207265586439        3.03266686041952       -1.22949625117499
H            1.78954609969872        2.58244064661276        0.38576320985297
