17

N          0.95403        0.05883       -0.06367
C          2.43671        0.05871       -0.05139
C          2.94554        0.45004       -1.43038
C          4.47296        0.46161       -1.46693
C          4.99240        0.85160       -2.84159
H          0.57627       -0.20274        0.85671
H          0.58014       -0.61064       -0.74954
H          0.57656        0.98707       -0.29692
H          2.75159       -0.95011        0.23102
H          2.74778        0.77128        0.71797
H          2.56390        1.44284       -1.70001
H          2.56545       -0.25401       -2.18105
H          4.85953       -0.52996       -1.20408
H          4.85836        1.16821       -0.72261
H          4.64951        0.14565       -3.60473
H          6.08683        0.85345       -2.84710
H          4.64905        1.85293       -3.12049
