 xtb: 6.5.1 (fef0646)
          01242315593D

 17 16  0     0  0            999 V2000
    0.9297    0.0543   -0.0461 N   0  0  0  0  0  0  0  0  0  0  0  0
    2.4131    0.0601   -0.0609 C   0  0  0  0  0  0  0  0  0  0  0  0
    2.9365    0.4517   -1.4381 C   0  0  0  0  0  0  0  0  0  0  0  0
    4.4650    0.4601   -1.4619 C   0  0  0  0  0  0  0  0  0  0  0  0
    4.9966    0.8508   -2.8365 C   0  0  0  0  0  0  0  0  0  0  0  0
    0.5745   -0.2042    0.8814 H   0  0  0  0  0  0  0  0  0  0  0  0
    0.5733   -0.6176   -0.7359 H   0  0  0  0  0  0  0  0  0  0  0  0
    0.5716    0.9854   -0.2894 H   0  0  0  0  0  0  0  0  0  0  0  0
    2.7778   -0.9329    0.2013 H   0  0  0  0  0  0  0  0  0  0  0  0
    2.7762    0.7681    0.6838 H   0  0  0  0  0  0  0  0  0  0  0  0
    2.5825    1.4474   -1.7084 H   0  0  0  0  0  0  0  0  0  0  0  0
    2.5836   -0.2533   -2.1920 H   0  0  0  0  0  0  0  0  0  0  0  0
    4.8446   -0.5296   -1.2012 H   0  0  0  0  0  0  0  0  0  0  0  0
    4.8425    1.1661   -0.7200 H   0  0  0  0  0  0  0  0  0  0  0  0
    4.6588    0.1491   -3.5961 H   0  0  0  0  0  0  0  0  0  0  0  0
    6.0839    0.8534   -2.8400 H   0  0  0  0  0  0  0  0  0  0  0  0
    4.6564    1.8460   -3.1147 H   0  0  0  0  0  0  0  0  0  0  0  0
  1  2  1  0  0  0  0
  2  3  1  0  0  0  0
  3  4  1  0  0  0  0
  4  5  1  0  0  0  0
  1  6  1  0  0  0  0
  1  7  1  0  0  0  0
  1  8  1  0  0  0  0
  2  9  1  0  0  0  0
  2 10  1  0  0  0  0
  3 11  1  0  0  0  0
  3 12  1  0  0  0  0
  4 13  1  0  0  0  0
  4 14  1  0  0  0  0
  5 15  1  0  0  0  0
  5 16  1  0  0  0  0
  5 17  1  0  0  0  0
M  CHG  1   1   1
M  END
