35
 xtb: 6.5.1 (fef0646)
N           -5.86610316909766        0.06059821380312        1.66328317142523
C           -5.92284697688301       -0.91424770140917        0.53675065438127
C           -5.29800532785903       -0.36897473021024       -0.74618813910212
C           -3.83117858762969       -0.08866321616981       -0.60741897693638
C           -2.90995660550969       -1.12980226371317       -0.61982629256375
C           -1.56533450468095       -0.88825050026813       -0.47154491728083
C           -1.08163506818292        0.41918621857275       -0.30160223901531
C            0.31372277715676        0.72240286085520       -0.16029525016360
C            1.31940984369613       -0.19055609663827       -0.08396108853511
C            2.71785717953968        0.11367213528820        0.02432914859357
C            3.64674571665145       -0.93482287622695        0.06705670316547
C            5.00326717199018       -0.69084675462739        0.15035462431927
F            5.87352857425728       -1.71271849040267        0.19490602728971
C            5.46060462323236        0.62110555985212        0.19947427509850
C            4.56471906591927        1.67064109458759        0.17124233554428
C            3.21244948152056        1.42880680043758        0.08552126876852
C           -2.02041498103140        1.46265102973719       -0.29095799830827
C           -3.36271215013786        1.21008540440883       -0.43820507207628
H           -4.88041899548712        0.33014960679020        1.87053223395507
H           -6.25638054090363       -0.31758524152475        2.53797205587798
H           -6.36851265544900        0.92358376964628        1.43973454719892
H           -6.96295266032308       -1.19877906740766        0.38504568095710
H           -5.40073684528519       -1.83291371805557        0.85094351943694
H           -5.81934418853092        0.54216469446971       -1.03373845527852
H           -5.45295567347141       -1.07877579998639       -1.55952799212017
H           -3.26742019848002       -2.14465822408209       -0.69485477187149
H           -0.88332644243228       -1.71922889658415       -0.44697501907486
H            0.56469536251322        1.76614132529639       -0.10561555586136
H            1.06990728697475       -1.23039277927535       -0.19190810144437
H            3.31513504576236       -1.95219187486157       -0.03789329459742
H            6.51323932412282        0.79305603307287        0.33580511507292
H            4.92048241904085        2.68082735009117        0.29639275286451
H            2.52811338362951        2.25951439646549        0.08504723769154
H           -1.67384202427030        2.47888546315857       -0.23128425773401
H           -4.06312735945858        2.02680016803654       -0.48467373357066
