 xtb: 6.5.1 (fef0646)
          01242317003D

 35 36  0     0  0            999 V2000
   -5.8489    0.0702    1.6804 N   0  0  0  0  0  0  0  0  0  0  0  0
   -5.9153   -0.9132    0.5602 C   0  0  0  0  0  0  0  0  0  0  0  0
   -5.3006   -0.3754   -0.7305 C   0  0  0  0  0  0  0  0  0  0  0  0
   -3.8331   -0.0923   -0.6046 C   0  0  0  0  0  0  0  0  0  0  0  0
   -2.9141   -1.1347   -0.5779 C   0  0  0  0  0  0  0  0  0  0  0  0
   -1.5689   -0.8911   -0.4409 C   0  0  0  0  0  0  0  0  0  0  0  0
   -1.0820    0.4198   -0.3216 C   0  0  0  0  0  0  0  0  0  0  0  0
    0.3131    0.7240   -0.1803 C   0  0  0  0  0  0  0  0  0  0  0  0
    1.3226   -0.1864   -0.1449 C   0  0  0  0  0  0  0  0  0  0  0  0
    2.7184    0.1159   -0.0056 C   0  0  0  0  0  0  0  0  0  0  0  0
    3.6487   -0.9317    0.0180 C   0  0  0  0  0  0  0  0  0  0  0  0
    5.0008   -0.6909    0.1512 C   0  0  0  0  0  0  0  0  0  0  0  0
    5.8719   -1.7120    0.1745 F   0  0  0  0  0  0  0  0  0  0  0  0
    5.4529    0.6175    0.2632 C   0  0  0  0  0  0  0  0  0  0  0  0
    4.5566    1.6669    0.2422 C   0  0  0  0  0  0  0  0  0  0  0  0
    3.2084    1.4280    0.1100 C   0  0  0  0  0  0  0  0  0  0  0  0
   -2.0187    1.4643   -0.3470 C   0  0  0  0  0  0  0  0  0  0  0  0
   -3.3617    1.2098   -0.4844 C   0  0  0  0  0  0  0  0  0  0  0  0
   -4.8756    0.3370    1.8681 H   0  0  0  0  0  0  0  0  0  0  0  0
   -6.2445   -0.3151    2.5459 H   0  0  0  0  0  0  0  0  0  0  0  0
   -6.3690    0.9235    1.4461 H   0  0  0  0  0  0  0  0  0  0  0  0
   -6.9610   -1.1992    0.3948 H   0  0  0  0  0  0  0  0  0  0  0  0
   -5.3975   -1.8318    0.8583 H   0  0  0  0  0  0  0  0  0  0  0  0
   -5.8210    0.5395   -1.0301 H   0  0  0  0  0  0  0  0  0  0  0  0
   -5.4549   -1.0823   -1.5534 H   0  0  0  0  0  0  0  0  0  0  0  0
   -3.2694   -2.1470   -0.6702 H   0  0  0  0  0  0  0  0  0  0  0  0
   -0.8852   -1.7205   -0.4260 H   0  0  0  0  0  0  0  0  0  0  0  0
    0.5632    1.7658   -0.0976 H   0  0  0  0  0  0  0  0  0  0  0  0
    1.0724   -1.2281   -0.2275 H   0  0  0  0  0  0  0  0  0  0  0  0
    3.3169   -1.9504   -0.0673 H   0  0  0  0  0  0  0  0  0  0  0  0
    6.5100    0.7913    0.3661 H   0  0  0  0  0  0  0  0  0  0  0  0
    4.9171    2.6790    0.3297 H   0  0  0  0  0  0  0  0  0  0  0  0
    2.5268    2.2592    0.0943 H   0  0  0  0  0  0  0  0  0  0  0  0
   -1.6727    2.4801   -0.2588 H   0  0  0  0  0  0  0  0  0  0  0  0
   -4.0625    2.0268   -0.5062 H   0  0  0  0  0  0  0  0  0  0  0  0
  1  2  1  0  0  0  0
  2  3  1  0  0  0  0
  3  4  1  0  0  0  0
  4  5  4  0  0  0  0
  5  6  4  0  0  0  0
  6  7  4  0  0  0  0
  7  8  1  0  0  0  0
  8  9  2  0  0  0  0
  9 10  1  0  0  0  0
 10 11  4  0  0  0  0
 11 12  4  0  0  0  0
 12 13  1  0  0  0  0
 12 14  4  0  0  0  0
 14 15  4  0  0  0  0
 10 16  4  0  0  0  0
 15 16  4  0  0  0  0
  7 17  4  0  0  0  0
  4 18  4  0  0  0  0
 17 18  4  0  0  0  0
  1 19  1  0  0  0  0
  1 20  1  0  0  0  0
  1 21  1  0  0  0  0
  2 22  1  0  0  0  0
  2 23  1  0  0  0  0
  3 24  1  0  0  0  0
  3 25  1  0  0  0  0
  5 26  1  0  0  0  0
  6 27  1  0  0  0  0
  8 28  1  0  0  0  0
  9 29  1  0  0  0  0
 11 30  1  0  0  0  0
 14 31  1  0  0  0  0
 15 32  1  0  0  0  0
 16 33  1  0  0  0  0
 17 34  1  0  0  0  0
 18 35  1  0  0  0  0
M  CHG  1   1   1
M  END
