 xtb: 6.5.1 (fef0646)
          01232319573D

 25 24  0     0  0            999 V2000
    1.1242   -0.4818   -0.3906 N   0  0  0  0  0  0  0  0  0  0  0  0
    2.5765   -0.3609   -0.2599 C   0  0  0  0  0  0  0  0  0  0  0  0
    3.0464    0.9502   -0.8811 C   0  0  0  0  0  0  0  0  0  0  0  0
    4.5312    1.2083   -0.6061 C   0  0  0  0  0  0  0  0  0  0  0  0
    4.9651    2.4983   -1.2433 C   0  0  0  0  0  0  0  0  0  0  0  0
    4.6699    3.7117   -0.6338 C   0  0  0  0  0  0  0  0  0  0  0  0
    5.0333    4.9061   -1.2282 C   0  0  0  0  0  0  0  0  0  0  0  0
    5.6978    4.9031   -2.4434 C   0  0  0  0  0  0  0  0  0  0  0  0
    5.9948    3.7001   -3.0591 C   0  0  0  0  0  0  0  0  0  0  0  0
    5.6281    2.5060   -2.4625 C   0  0  0  0  0  0  0  0  0  0  0  0
   -0.1341    1.7146    1.0925 Cl  0  0  0  0  0  0  0  0  0  0  0  0
    0.7899   -1.3546    0.0029 H   0  0  0  0  0  0  0  0  0  0  0  0
    0.8471   -0.4338   -1.3656 H   0  0  0  0  0  0  0  0  0  0  0  0
    0.4546    0.6929    0.3911 H   0  0  0  0  0  0  0  0  0  0  0  0
    3.1048   -1.2043   -0.7278 H   0  0  0  0  0  0  0  0  0  0  0  0
    2.8085   -0.3657    0.8080 H   0  0  0  0  0  0  0  0  0  0  0  0
    2.4531    1.7662   -0.4679 H   0  0  0  0  0  0  0  0  0  0  0  0
    2.8785    0.9262   -1.9606 H   0  0  0  0  0  0  0  0  0  0  0  0
    5.1245    0.3797   -0.9990 H   0  0  0  0  0  0  0  0  0  0  0  0
    4.6874    1.2584    0.4735 H   0  0  0  0  0  0  0  0  0  0  0  0
    4.1527    3.7172    0.3149 H   0  0  0  0  0  0  0  0  0  0  0  0
    4.7985    5.8422   -0.7431 H   0  0  0  0  0  0  0  0  0  0  0  0
    5.9837    5.8354   -2.9077 H   0  0  0  0  0  0  0  0  0  0  0  0
    6.5138    3.6908   -4.0066 H   0  0  0  0  0  0  0  0  0  0  0  0
    5.8639    1.5691   -2.9479 H   0  0  0  0  0  0  0  0  0  0  0  0
  1  2  1  0  0  0  0
  2  3  1  0  0  0  0
  3  4  1  0  0  0  0
  4  5  1  0  0  0  0
  5  6  4  0  0  0  0
  6  7  4  0  0  0  0
  7  8  4  0  0  0  0
  8  9  4  0  0  0  0
  5 10  4  0  0  0  0
  9 10  4  0  0  0  0
  1 12  1  0  0  0  0
  1 13  1  0  0  0  0
 11 14  1  0  0  0  0
  2 15  1  0  0  0  0
  2 16  1  0  0  0  0
  3 17  1  0  0  0  0
  3 18  1  0  0  0  0
  4 19  1  0  0  0  0
  4 20  1  0  0  0  0
  6 21  1  0  0  0  0
  7 22  1  0  0  0  0
  8 23  1  0  0  0  0
  9 24  1  0  0  0  0
 10 25  1  0  0  0  0
M  END
