 xtb: 6.5.1 (fef0646)
          01242317073D

 19 18  0     0  0            999 V2000
   -0.3126   -1.5769   -0.4499 N   0  0  0  0  0  0  0  0  0  0  0  0
   -1.0978   -1.0192    0.6878 C   0  0  0  0  0  0  0  0  0  0  0  0
   -1.9029    0.2228    0.2966 C   0  0  0  0  0  0  0  0  0  0  0  0
   -1.0684    1.4290    0.0209 C   0  0  0  0  0  0  0  0  0  0  0  0
   -1.4328    2.7113    0.2778 C   0  0  0  0  0  0  0  0  0  0  0  0
   -0.4541    3.6799   -0.1028 C   0  0  0  0  0  0  0  0  0  0  0  0
    0.6546    3.1361   -0.6510 C   0  0  0  0  0  0  0  0  0  0  0  0
    0.5158    1.4155   -0.7043 S   0  0  0  0  0  0  0  0  0  0  0  0
    1.7124   -4.2182    0.6172 Cl  0  0  0  0  0  0  0  0  0  0  0  0
    0.2897   -2.3694   -0.1618 H   0  0  0  0  0  0  0  0  0  0  0  0
    0.2905   -0.8409   -0.8354 H   0  0  0  0  0  0  0  0  0  0  0  0
   -0.9300   -1.8999   -1.2074 H   0  0  0  0  0  0  0  0  0  0  0  0
   -0.4213   -0.7656    1.5123 H   0  0  0  0  0  0  0  0  0  0  0  0
   -1.7626   -1.7983    1.0809 H   0  0  0  0  0  0  0  0  0  0  0  0
   -2.6223    0.4680    1.0869 H   0  0  0  0  0  0  0  0  0  0  0  0
   -2.5047    0.0015   -0.5911 H   0  0  0  0  0  0  0  0  0  0  0  0
   -2.3804    2.9722    0.7237 H   0  0  0  0  0  0  0  0  0  0  0  0
   -0.5919    4.7425    0.0336 H   0  0  0  0  0  0  0  0  0  0  0  0
    1.5093    3.6804   -1.0058 H   0  0  0  0  0  0  0  0  0  0  0  0
  1  2  1  0  0  0  0
  2  3  1  0  0  0  0
  3  4  1  0  0  0  0
  4  5  2  0  0  0  0
  5  6  4  0  0  0  0
  6  7  2  0  0  0  0
  4  8  1  0  0  0  0
  7  8  1  0  0  0  0
  1 10  1  0  0  0  0
  1 11  1  0  0  0  0
  1 12  1  0  0  0  0
  2 13  1  0  0  0  0
  2 14  1  0  0  0  0
  3 15  1  0  0  0  0
  3 16  1  0  0  0  0
  5 17  1  0  0  0  0
  6 18  1  0  0  0  0
  7 19  1  0  0  0  0
M  END
