12
 xtb: 6.5.1 (fef0646)
N            0.85074082302377        0.51972023220777       -0.29021560702051
C            1.61330320787219       -0.67717557075771        0.17219850354217
C            3.10951792935889       -0.55202545163469       -0.04377970793238
Cl          -2.29040152768748        0.25229244822164        0.08392296817777
H           -0.08935112576473        0.46349969220059       -0.17611532496955
H            1.11761073526147        0.70585892053596       -1.31261861222735
H            1.25950039607130        1.37875324790559        0.20237434721082
H            1.26603102275974       -1.55805886772463       -0.35426771142502
H            1.43421222421872       -0.84268747259872        1.22892934602009
H            3.57187276854624        0.28313002283820        0.49963623872616
H            3.40104758439076       -0.43288170053170       -1.09503519483818
H            3.68488198715089       -1.46611898517633        0.30524924831499
