 xtb: 6.5.1 (fef0646)
          01242310033D

 12 10  0     0  0            999 V2000
    0.9740    0.5457   -0.3110 N   0  0  0  0  0  0  0  0  0  0  0  0
    1.6802   -0.6758    0.1655 C   0  0  0  0  0  0  0  0  0  0  0  0
    3.1783   -0.5803   -0.0374 C   0  0  0  0  0  0  0  0  0  0  0  0
   -2.4814    0.2517    0.0999 Cl  0  0  0  0  0  0  0  0  0  0  0  0
   -0.0513    0.4786   -0.1836 H   0  0  0  0  0  0  0  0  0  0  0  0
    1.1546    0.7099   -1.3183 H   0  0  0  0  0  0  0  0  0  0  0  0
    1.2993    1.3834    0.1969 H   0  0  0  0  0  0  0  0  0  0  0  0
    1.2805   -1.5548   -0.3572 H   0  0  0  0  0  0  0  0  0  0  0  0
    1.4490   -0.8400    1.2263 H   0  0  0  0  0  0  0  0  0  0  0  0
    3.5949    0.2729    0.5023 H   0  0  0  0  0  0  0  0  0  0  0  0
    3.4241   -0.4425   -1.0927 H   0  0  0  0  0  0  0  0  0  0  0  0
    3.6998   -1.4767    0.3083 H   0  0  0  0  0  0  0  0  0  0  0  0
  1  2  1  0  0  0  0
  2  3  1  0  0  0  0
  1  5  1  0  0  0  0
  1  6  1  0  0  0  0
  1  7  1  0  0  0  0
  2  8  1  0  0  0  0
  2  9  1  0  0  0  0
  3 10  1  0  0  0  0
  3 11  1  0  0  0  0
  3 12  1  0  0  0  0
M  END
