  18

 N         -0.3427589180        1.3119455351        0.5745085951
 C          0.8226060924        1.0621015277       -0.3173076419
 C          1.7933360148        0.0106846683        0.2399590590
 C          1.1157422654       -1.3501339456        0.4026841895
 C          3.0357186091       -0.1030109569       -0.6461013624
 Cl        -2.4216503729       -1.5194202351        0.6467561461
 H         -0.9366435652        2.0853847476        0.2295306605
 H         -0.0341120183        1.5574196376        1.5277535094
 H         -0.9469048356        0.4727951674        0.6491054127
 H          1.3614157131        2.0021612011       -0.4866908213
 H          0.4721001150        0.7426927127       -1.3052394241
 H          2.1120115782        0.3551583719        1.2391509117
 H          0.7214575977       -1.7013972116       -0.5523895499
 H          0.2846573196       -1.3093779266        1.1088453164
 H          1.8181315272       -2.1041250270        0.7646134363
 H          2.7632559976       -0.4343596006       -1.6494482681
 H          3.7498168889       -0.8251390557       -0.2449147625
 H          3.5487476974        0.8558587399       -0.7446589298
          18
        -22.10758120
 N         -0.0041486373        1.7133199686       -0.0279077127
 C          1.1371021449        1.0028512573        0.6110758921
 C          1.3721284321       -0.3971273477        0.0253032859
 C          1.7471821390       -0.3296293211       -1.4553828933
 C          2.4391890619       -1.1483113667        0.8242694740
 Cl        -2.7286988142       -0.4460265073        0.0290100163
 H          0.1879898665        1.9217689227       -1.0211791036
 H         -0.2170912622        2.6092725751        0.4397236066
 H         -0.8602991250        1.1290150719        0.0027737299
 H          0.9580469775        0.9210190081        1.6899857570
 H          2.0518095625        1.5975389671        0.5089996996
 H          0.4218324149       -0.9522118892        0.1121113925
 H          2.6573847811        0.2558137679       -1.5959148085
 H          0.9609734179        0.1330307630       -2.0544887050
 H          1.9313219856       -1.3251028812       -1.8653107684
 H          3.3970130562       -0.6282471903        0.7705964225
 H          2.5920034181       -2.1583108085        0.4383577803
 H          2.1684392755       -1.2303303472        1.8789940937
