  18

 N          1.0255800000       -0.3362900000        0.2625200000
 C          2.4872100000       -0.3548200000        0.2023300000
 C          2.9973700000       -1.3511400000       -0.8457400000
 C          2.4820500000       -1.0593100000       -2.2562900000
 C          4.5258900000       -1.3274100000       -0.8430900000
 Cl         0.0274800000        2.0524100000       -0.9456500000
 H          0.6885200000        0.3670900000        0.9396400000
 H          0.5223500000       -1.2101800000        0.3847600000
 H          0.6408200000        0.1615800000       -0.5852300000
 H          2.8299000000       -0.6352000000        1.2039100000
 H          2.8241000000        0.6651400000       -0.0113800000
 H          2.6663200000       -2.3583700000       -0.5637800000
 H          2.7760700000       -0.0580000000       -2.5897200000
 H          1.3916800000       -1.1332100000       -2.3130400000
 H          2.8912400000       -1.7832100000       -2.9711500000
 H          4.9085400000       -0.3502900000       -1.1534600000
 H          4.9285500000       -2.0810300000       -1.5282400000
 H          4.9178500000       -1.5399200000        0.1574600000
