19
1.256
N           -0.43948  -0.05030   0.67604
C            0.24814  -1.32313   0.33008
C            1.65428  -1.41444   0.92136
C            2.71885  -0.55376   0.22434
C            2.64588   0.94914   0.52720
O            1.71037   1.66942  -0.25744
Cl          -3.51870   0.16873  -0.98619
H           -1.35342   0.04636   0.20596
H            0.17028   0.72780   0.37276
H           -0.58228   0.03889   1.69036
H            0.30126  -1.43435  -0.75932
H           -0.36814  -2.16225   0.67761
H            1.97697  -2.46426   0.90200
H            1.61540  -1.15125   1.98420
H            2.66599  -0.70778  -0.85829
H            3.71232  -0.92126   0.51507
H            3.62738   1.42726   0.39968
H            2.38044   1.10644   1.57913
H            1.98003   1.66941  -1.19708
