 xtb: 6.5.1 (fef0646)
          01242310123D

 29 29  0     0  0            999 V2000
   -3.5729    1.7325   -1.0359 N   0  0  0  0  0  0  0  0  0  0  0  0
   -2.0867    1.7863   -1.1019 C   0  0  0  0  0  0  0  0  0  0  0  0
   -1.4635    1.9221    0.2804 C   0  0  0  0  0  0  0  0  0  0  0  0
   -0.0554    1.7002    0.2781 O   0  0  0  0  0  0  0  0  0  0  0  0
    0.3435    0.3724    0.1545 C   0  0  0  0  0  0  0  0  0  0  0  0
   -0.5077   -0.7219    0.1479 C   0  0  0  0  0  0  0  0  0  0  0  0
   -0.0217   -2.0194    0.0206 C   0  0  0  0  0  0  0  0  0  0  0  0
    1.3188   -2.2584   -0.1023 C   0  0  0  0  0  0  0  0  0  0  0  0
    2.2369   -1.1892   -0.1006 C   0  0  0  0  0  0  0  0  0  0  0  0
    3.6286   -1.3942   -0.2243 C   0  0  0  0  0  0  0  0  0  0  0  0
    4.4917   -0.3353   -0.2191 C   0  0  0  0  0  0  0  0  0  0  0  0
    4.0085    0.9695   -0.0911 C   0  0  0  0  0  0  0  0  0  0  0  0
    2.6660    1.1986    0.0304 C   0  0  0  0  0  0  0  0  0  0  0  0
    1.7503    0.1326    0.0292 C   0  0  0  0  0  0  0  0  0  0  0  0
   -4.0248   -1.1364    0.8304 Cl  0  0  0  0  0  0  0  0  0  0  0  0
   -3.8732    0.9127   -0.4768 H   0  0  0  0  0  0  0  0  0  0  0  0
   -4.0042    1.6520   -1.9709 H   0  0  0  0  0  0  0  0  0  0  0  0
   -3.9564    2.5762   -0.5814 H   0  0  0  0  0  0  0  0  0  0  0  0
   -1.7597    2.6153   -1.7400 H   0  0  0  0  0  0  0  0  0  0  0  0
   -1.7074    0.8816   -1.5892 H   0  0  0  0  0  0  0  0  0  0  0  0
   -1.9260    1.2466    1.0066 H   0  0  0  0  0  0  0  0  0  0  0  0
   -1.6265    2.9322    0.6731 H   0  0  0  0  0  0  0  0  0  0  0  0
   -1.5687   -0.5779    0.2478 H   0  0  0  0  0  0  0  0  0  0  0  0
   -0.7138   -2.8469    0.0200 H   0  0  0  0  0  0  0  0  0  0  0  0
    1.6877   -3.2659   -0.2004 H   0  0  0  0  0  0  0  0  0  0  0  0
    4.0012   -2.4002   -0.3229 H   0  0  0  0  0  0  0  0  0  0  0  0
    5.5528   -0.5046   -0.3142 H   0  0  0  0  0  0  0  0  0  0  0  0
    4.6991    1.7979   -0.0883 H   0  0  0  0  0  0  0  0  0  0  0  0
    2.2840    2.2009    0.1298 H   0  0  0  0  0  0  0  0  0  0  0  0
  1  2  1  0  0  0  0
  2  3  1  0  0  0  0
  3  4  1  0  0  0  0
  4  5  1  0  0  0  0
  5  6  4  0  0  0  0
  6  7  4  0  0  0  0
  7  8  2  0  0  0  0
  8  9  4  0  0  0  0
  9 10  4  0  0  0  0
 10 11  2  0  0  0  0
 11 12  4  0  0  0  0
 12 13  2  0  0  0  0
  5 14  4  0  0  0  0
  9 14  4  0  0  0  0
 13 14  4  0  0  0  0
  1 16  1  0  0  0  0
  1 17  1  0  0  0  0
  1 18  1  0  0  0  0
  2 19  1  0  0  0  0
  2 20  1  0  0  0  0
  3 21  1  0  0  0  0
  3 22  1  0  0  0  0
  6 23  1  0  0  0  0
  7 24  1  0  0  0  0
  8 25  1  0  0  0  0
 10 26  1  0  0  0  0
 11 27  1  0  0  0  0
 12 28  1  0  0  0  0
 13 29  1  0  0  0  0
M  END
