 xtb: 6.5.1 (fef0646)
          01242317143D

 29 29  0     0  0            999 V2000
    2.9866   -0.9317   -0.4782 N   0  0  0  0  0  0  0  0  0  0  0  0
    2.8985    0.5215   -0.1850 C   0  0  0  0  0  0  0  0  0  0  0  0
    1.5869    1.0965   -0.6995 C   0  0  0  0  0  0  0  0  0  0  0  0
    0.4704    0.4594   -0.0883 O   0  0  0  0  0  0  0  0  0  0  0  0
   -0.7747    0.9129   -0.5149 C   0  0  0  0  0  0  0  0  0  0  0  0
   -0.9720    1.8810   -1.4847 C   0  0  0  0  0  0  0  0  0  0  0  0
   -2.2513    2.2825   -1.8631 C   0  0  0  0  0  0  0  0  0  0  0  0
   -3.3586    1.7308   -1.2858 C   0  0  0  0  0  0  0  0  0  0  0  0
   -3.2263    0.7406   -0.2897 C   0  0  0  0  0  0  0  0  0  0  0  0
   -4.3480    0.1480    0.3326 C   0  0  0  0  0  0  0  0  0  0  0  0
   -4.1866   -0.8046    1.2947 C   0  0  0  0  0  0  0  0  0  0  0  0
   -2.9043   -1.2092    1.6813 C   0  0  0  0  0  0  0  0  0  0  0  0
   -1.8020   -0.6548    1.0979 C   0  0  0  0  0  0  0  0  0  0  0  0
   -1.9307    0.3282    0.1009 C   0  0  0  0  0  0  0  0  0  0  0  0
    5.8725   -2.3347    0.9630 Cl  0  0  0  0  0  0  0  0  0  0  0  0
    3.8366   -1.3629   -0.0715 H   0  0  0  0  0  0  0  0  0  0  0  0
    2.9945   -1.1036   -1.4926 H   0  0  0  0  0  0  0  0  0  0  0  0
    2.1648   -1.4142   -0.0919 H   0  0  0  0  0  0  0  0  0  0  0  0
    3.7551    1.0481   -0.6217 H   0  0  0  0  0  0  0  0  0  0  0  0
    2.9614    0.6800    0.8974 H   0  0  0  0  0  0  0  0  0  0  0  0
    1.5114    0.9460   -1.7815 H   0  0  0  0  0  0  0  0  0  0  0  0
    1.5209    2.1722   -0.4997 H   0  0  0  0  0  0  0  0  0  0  0  0
   -0.1242    2.3377   -1.9621 H   0  0  0  0  0  0  0  0  0  0  0  0
   -2.3663    3.0390   -2.6225 H   0  0  0  0  0  0  0  0  0  0  0  0
   -4.3441    2.0459   -1.5833 H   0  0  0  0  0  0  0  0  0  0  0  0
   -5.3347    0.4608    0.0360 H   0  0  0  0  0  0  0  0  0  0  0  0
   -5.0497   -1.2496    1.7629 H   0  0  0  0  0  0  0  0  0  0  0  0
   -2.7893   -1.9618    2.4442 H   0  0  0  0  0  0  0  0  0  0  0  0
   -0.8130   -0.9584    1.3948 H   0  0  0  0  0  0  0  0  0  0  0  0
  1  2  1  0  0  0  0
  2  3  1  0  0  0  0
  3  4  1  0  0  0  0
  4  5  1  0  0  0  0
  5  6  4  0  0  0  0
  6  7  4  0  0  0  0
  7  8  2  0  0  0  0
  8  9  4  0  0  0  0
  9 10  4  0  0  0  0
 10 11  2  0  0  0  0
 11 12  4  0  0  0  0
 12 13  2  0  0  0  0
  5 14  4  0  0  0  0
  9 14  4  0  0  0  0
 13 14  4  0  0  0  0
  1 16  1  0  0  0  0
  1 17  1  0  0  0  0
  1 18  1  0  0  0  0
  2 19  1  0  0  0  0
  2 20  1  0  0  0  0
  3 21  1  0  0  0  0
  3 22  1  0  0  0  0
  6 23  1  0  0  0  0
  7 24  1  0  0  0  0
  8 25  1  0  0  0  0
 10 26  1  0  0  0  0
 11 27  1  0  0  0  0
 12 28  1  0  0  0  0
 13 29  1  0  0  0  0
M  END
