 xtb: 6.5.1 (fef0646)
          01242310033D

 18 18  0     0  0            999 V2000
   -1.8442    0.0001    0.5592 N   0  0  0  0  0  0  0  0  0  0  0  0
   -0.8131    0.0079   -0.5236 C   0  0  0  0  0  0  0  0  0  0  0  0
    0.1207    1.2349   -0.4188 C   0  0  0  0  0  0  0  0  0  0  0  0
    1.3913    0.7657    0.3252 C   0  0  0  0  0  0  0  0  0  0  0  0
    1.3658   -0.7826    0.3449 C   0  0  0  0  0  0  0  0  0  0  0  0
    0.1143   -1.2261   -0.4429 C   0  0  0  0  0  0  0  0  0  0  0  0
   -2.4482    0.8325    0.5092 H   0  0  0  0  0  0  0  0  0  0  0  0
   -1.4011   -0.0100    1.4878 H   0  0  0  0  0  0  0  0  0  0  0  0
   -2.4525   -0.8281    0.4923 H   0  0  0  0  0  0  0  0  0  0  0  0
   -1.3424    0.0186   -1.4925 H   0  0  0  0  0  0  0  0  0  0  0  0
   -0.3775    2.0570    0.1064 H   0  0  0  0  0  0  0  0  0  0  0  0
    0.3735    1.6113   -1.4174 H   0  0  0  0  0  0  0  0  0  0  0  0
    1.4144    1.1660    1.3464 H   0  0  0  0  0  0  0  0  0  0  0  0
    2.2976    1.1439   -0.1641 H   0  0  0  0  0  0  0  0  0  0  0  0
    1.3228   -1.1544    1.3758 H   0  0  0  0  0  0  0  0  0  0  0  0
    2.2810   -1.2059   -0.0885 H   0  0  0  0  0  0  0  0  0  0  0  0
   -0.3963   -2.0652    0.0425 H   0  0  0  0  0  0  0  0  0  0  0  0
    0.3903   -1.5658   -1.4481 H   0  0  0  0  0  0  0  0  0  0  0  0
  1  2  1  0  0  0  0
  2  3  1  0  0  0  0
  3  4  1  0  0  0  0
  4  5  1  0  0  0  0
  2  6  1  0  0  0  0
  5  6  1  0  0  0  0
  1  7  1  0  0  0  0
  1  8  1  0  0  0  0
  1  9  1  0  0  0  0
  2 10  1  0  0  0  0
  3 11  1  0  0  0  0
  3 12  1  0  0  0  0
  4 13  1  0  0  0  0
  4 14  1  0  0  0  0
  5 15  1  0  0  0  0
  5 16  1  0  0  0  0
  6 17  1  0  0  0  0
  6 18  1  0  0  0  0
M  CHG  1   1   1
M  END
