 xtb: 6.5.1 (fef0646)
          01242317033D

 50 53  0     0  0            999 V2000
   -8.6929    1.1244   -1.2402 N   0  0  0  0  0  0  0  0  0  0  0  0
   -9.0734   -0.3043   -1.0506 C   0  0  0  0  0  0  0  0  0  0  0  0
   -8.4586   -0.8890    0.2209 C   0  0  0  0  0  0  0  0  0  0  0  0
   -6.9774   -1.0102    0.1299 C   0  0  0  0  0  0  0  0  0  0  0  0
   -6.3022   -2.1217   -0.2611 C   0  0  0  0  0  0  0  0  0  0  0  0
   -4.8927   -1.9620   -0.2795 C   0  0  0  0  0  0  0  0  0  0  0  0
   -4.4723   -0.7180    0.0969 C   0  0  0  0  0  0  0  0  0  0  0  0
   -3.1038   -0.2807    0.1651 C   0  0  0  0  0  0  0  0  0  0  0  0
   -2.6839    0.9669    0.5383 C   0  0  0  0  0  0  0  0  0  0  0  0
   -1.2795    1.1511    0.5212 C   0  0  0  0  0  0  0  0  0  0  0  0
   -0.6572    2.4669    0.8350 C   0  0  0  0  0  0  0  0  0  0  0  0
   -0.5892    0.0109    0.1541 C   0  0  0  0  0  0  0  0  0  0  0  0
    0.8468   -0.1817    0.0509 C   0  0  0  0  0  0  0  0  0  0  0  0
    1.3658   -1.0191   -0.9201 C   0  0  0  0  0  0  0  0  0  0  0  0
    2.7368   -1.2210   -1.0903 C   0  0  0  0  0  0  0  0  0  0  0  0
    3.6862   -0.6010   -0.3005 C   0  0  0  0  0  0  0  0  0  0  0  0
    5.1041   -0.8275   -0.5431 C   0  0  0  0  0  0  0  0  0  0  0  0
    6.1376    0.0787   -0.4451 C   0  0  0  0  0  0  0  0  0  0  0  0
    5.9825    1.5201   -0.1051 C   0  0  0  0  0  0  0  0  0  0  0  0
    7.4085   -0.4994   -0.7336 C   0  0  0  0  0  0  0  0  0  0  0  0
    7.3559   -1.8075   -1.0702 C   0  0  0  0  0  0  0  0  0  0  0  0
    5.7319   -2.3796   -1.0470 S   0  0  0  0  0  0  0  0  0  0  0  0
    3.2113    0.2251    0.7796 C   0  0  0  0  0  0  0  0  0  0  0  0
    3.9330    0.7931    1.7265 N   0  0  0  0  0  0  0  0  0  0  0  0
    2.9159    1.5657    2.7529 S   0  0  0  0  0  0  0  0  0  0  0  0
    1.5042    1.1454    2.0339 N   0  0  0  0  0  0  0  0  0  0  0  0
    1.7826    0.4356    0.9583 C   0  0  0  0  0  0  0  0  0  0  0  0
   -1.7226   -1.2636   -0.2238 S   0  0  0  0  0  0  0  0  0  0  0  0
   -5.8544    0.2735    0.4844 S   0  0  0  0  0  0  0  0  0  0  0  0
    2.4285    2.5007   -1.7420 Cl  0  0  0  0  0  0  0  0  0  0  0  0
   -7.6770    1.2184   -1.1000 H   0  0  0  0  0  0  0  0  0  0  0  0
   -9.1503    1.7234   -0.5416 H   0  0  0  0  0  0  0  0  0  0  0  0
   -8.9320    1.4777   -2.1761 H   0  0  0  0  0  0  0  0  0  0  0  0
   -8.7386   -0.8916   -1.9133 H   0  0  0  0  0  0  0  0  0  0  0  0
  -10.1662   -0.3944   -1.0346 H   0  0  0  0  0  0  0  0  0  0  0  0
   -8.8867   -1.8737    0.4407 H   0  0  0  0  0  0  0  0  0  0  0  0
   -8.7118   -0.2551    1.0766 H   0  0  0  0  0  0  0  0  0  0  0  0
   -6.7970   -3.0396   -0.5374 H   0  0  0  0  0  0  0  0  0  0  0  0
   -4.2088   -2.7451   -0.5664 H   0  0  0  0  0  0  0  0  0  0  0  0
   -3.3706    1.7508    0.8132 H   0  0  0  0  0  0  0  0  0  0  0  0
   -1.3105    3.2895    0.5443 H   0  0  0  0  0  0  0  0  0  0  0  0
    0.2871    2.5881    0.3046 H   0  0  0  0  0  0  0  0  0  0  0  0
   -0.4568    2.5540    1.9028 H   0  0  0  0  0  0  0  0  0  0  0  0
    0.6769   -1.5143   -1.5814 H   0  0  0  0  0  0  0  0  0  0  0  0
    3.0788   -1.8684   -1.8787 H   0  0  0  0  0  0  0  0  0  0  0  0
    6.7440    2.1242   -0.5984 H   0  0  0  0  0  0  0  0  0  0  0  0
    6.0711    1.6744    0.9702 H   0  0  0  0  0  0  0  0  0  0  0  0
    5.0072    1.8920   -0.4184 H   0  0  0  0  0  0  0  0  0  0  0  0
    8.3252    0.0683   -0.6910 H   0  0  0  0  0  0  0  0  0  0  0  0
    8.1995   -2.4202   -1.3249 H   0  0  0  0  0  0  0  0  0  0  0  0
  1  2  1  0  0  0  0
  2  3  1  0  0  0  0
  3  4  1  0  0  0  0
  4  5  2  0  0  0  0
  5  6  4  0  0  0  0
  6  7  4  0  0  0  0
  7  8  1  0  0  0  0
  8  9  4  0  0  0  0
  9 10  4  0  0  0  0
 10 11  1  0  0  0  0
 10 12  4  0  0  0  0
 12 13  1  0  0  0  0
 13 14  4  0  0  0  0
 14 15  4  0  0  0  0
 15 16  4  0  0  0  0
 16 17  1  0  0  0  0
 17 18  2  0  0  0  0
 18 19  1  0  0  0  0
 18 20  4  0  0  0  0
 20 21  2  0  0  0  0
 17 22  1  0  0  0  0
 21 22  1  0  0  0  0
 16 23  1  0  0  0  0
 23 24  4  0  0  0  0
 24 25  2  0  0  0  0
 25 26  2  0  0  0  0
 13 27  1  0  0  0  0
 23 27  1  0  0  0  0
 26 27  4  0  0  0  0
  8 28  1  0  0  0  0
 12 28  1  0  0  0  0
  4 29  1  0  0  0  0
  7 29  1  0  0  0  0
  1 31  1  0  0  0  0
  1 32  1  0  0  0  0
  1 33  1  0  0  0  0
  2 34  1  0  0  0  0
  2 35  1  0  0  0  0
  3 36  1  0  0  0  0
  3 37  1  0  0  0  0
  5 38  1  0  0  0  0
  6 39  1  0  0  0  0
  9 40  1  0  0  0  0
 11 41  1  0  0  0  0
 11 42  1  0  0  0  0
 11 43  1  0  0  0  0
 14 44  1  0  0  0  0
 15 45  1  0  0  0  0
 19 46  1  0  0  0  0
 19 47  1  0  0  0  0
 19 48  1  0  0  0  0
 20 49  1  0  0  0  0
 21 50  1  0  0  0  0
M  END
