23
 xtb: 6.5.1 (fef0646)
N           -2.97802800574400       -1.49280858473825        0.72588582864175
C           -2.03961363730338       -2.38931413178477       -0.00822271480285
C           -0.61883646160756       -1.94654670722051        0.07905896375511
C           -0.25814277003319       -0.66714168252602       -0.06129511370190
C            1.10932595110034       -0.14996612328664        0.02288801361677
C            2.22924907143725       -0.97304364421425        0.13943282698128
C            3.49577655600822       -0.43420086210148        0.22863135934329
C            3.67355422944804        0.93541318740734        0.19620051492458
C            2.57839409590514        1.76721334381966        0.07391525275033
C            1.31107263895344        1.23034630535207       -0.00952772737705
Cl          -2.69978535587194        1.73401037259292       -0.58320046630978
H           -2.97010819841965       -0.55943259974146        0.40088892944720
H           -2.74504191616596       -1.50316026747892        1.74831662483460
H           -3.96286582413103       -1.87251521393978        0.66888530900509
H           -2.30405424285397       -2.39680671597513       -1.06867777065918
H           -2.12538604031688       -3.42816675633719        0.32785940162511
H            0.11844590492502       -2.65164064709012        0.43991677723949
H           -1.01146303336633        0.03305996299672       -0.39347468314006
H            2.10492714063695       -2.04272181489053        0.10929154450603
H            4.34918600049807       -1.08605679227817        0.30661064715057
H            4.65968007579815        1.35262677559990        0.29392864977141
H            2.70883271111070        2.83692096311651        0.08742091430207
H            0.45225040849948        1.87979977509756       -0.09701070088697
