 xtb: 6.5.1 (fef0646)
          01242310043D

 34 34  0     0  0            999 V2000
   -4.1501    0.4839   -0.7626 N   0  0  0  0  0  0  0  0  0  0  0  0
   -4.1515    1.0578    0.6130 C   0  0  0  0  0  0  0  0  0  0  0  0
   -2.9188    0.6346    1.4081 C   0  0  0  0  0  0  0  0  0  0  0  0
   -1.6350    0.9736    0.7095 C   0  0  0  0  0  0  0  0  0  0  0  0
   -1.0619    2.2306    0.8458 C   0  0  0  0  0  0  0  0  0  0  0  0
    0.0986    2.5518    0.1742 C   0  0  0  0  0  0  0  0  0  0  0  0
   -1.0283    0.0521   -0.1333 C   0  0  0  0  0  0  0  0  0  0  0  0
    0.1296    0.3704   -0.8082 C   0  0  0  0  0  0  0  0  0  0  0  0
    0.7136    1.6222   -0.6575 C   0  0  0  0  0  0  0  0  0  0  0  0
    1.9034    1.9377   -1.3166 N   0  0  0  0  0  0  0  0  0  0  0  0
    2.9321    1.2459   -1.2540 N   0  0  0  0  0  0  0  0  0  0  0  0
    3.0835    0.1530   -0.3968 C   0  0  0  0  0  0  0  0  0  0  0  0
    3.4377   -1.0952   -0.9005 C   0  0  0  0  0  0  0  0  0  0  0  0
    3.5579   -2.1804   -0.0585 C   0  0  0  0  0  0  0  0  0  0  0  0
    3.3290   -2.0347    1.2965 C   0  0  0  0  0  0  0  0  0  0  0  0
    2.9819   -0.7994    1.8092 C   0  0  0  0  0  0  0  0  0  0  0  0
    2.8621    0.2876    0.9697 C   0  0  0  0  0  0  0  0  0  0  0  0
   -3.0808   -2.8332   -0.5086 Cl  0  0  0  0  0  0  0  0  0  0  0  0
   -5.0341    0.6610   -1.2676 H   0  0  0  0  0  0  0  0  0  0  0  0
   -3.9956   -0.5404   -0.7293 H   0  0  0  0  0  0  0  0  0  0  0  0
   -3.3826    0.8821   -1.3246 H   0  0  0  0  0  0  0  0  0  0  0  0
   -5.0651    0.7551    1.1385 H   0  0  0  0  0  0  0  0  0  0  0  0
   -4.1946    2.1522    0.5471 H   0  0  0  0  0  0  0  0  0  0  0  0
   -2.9499   -0.4461    1.5859 H   0  0  0  0  0  0  0  0  0  0  0  0
   -2.9232    1.0947    2.4031 H   0  0  0  0  0  0  0  0  0  0  0  0
   -1.5362    2.9578    1.4844 H   0  0  0  0  0  0  0  0  0  0  0  0
    0.5491    3.5235    0.2862 H   0  0  0  0  0  0  0  0  0  0  0  0
   -1.4812   -0.9172   -0.2634 H   0  0  0  0  0  0  0  0  0  0  0  0
    0.6025   -0.3469   -1.4578 H   0  0  0  0  0  0  0  0  0  0  0  0
    3.6082   -1.1967   -1.9591 H   0  0  0  0  0  0  0  0  0  0  0  0
    3.8301   -3.1445   -0.4587 H   0  0  0  0  0  0  0  0  0  0  0  0
    3.4225   -2.8847    1.9539 H   0  0  0  0  0  0  0  0  0  0  0  0
    2.8033   -0.6849    2.8667 H   0  0  0  0  0  0  0  0  0  0  0  0
    2.5878    1.2545    1.3563 H   0  0  0  0  0  0  0  0  0  0  0  0
  1  2  1  0  0  0  0
  2  3  1  0  0  0  0
  3  4  1  0  0  0  0
  4  5  4  0  0  0  0
  5  6  4  0  0  0  0
  4  7  4  0  0  0  0
  7  8  4  0  0  0  0
  6  9  4  0  0  0  0
  8  9  4  0  0  0  0
  9 10  1  0  0  0  0
 10 11  2  0  0  0  0
 11 12  1  0  0  0  0
 12 13  4  0  0  0  0
 13 14  4  0  0  0  0
 14 15  4  0  0  0  0
 15 16  4  0  0  0  0
 12 17  4  0  0  0  0
 16 17  4  0  0  0  0
  1 19  1  0  0  0  0
  1 20  1  0  0  0  0
  1 21  1  0  0  0  0
  2 22  1  0  0  0  0
  2 23  1  0  0  0  0
  3 24  1  0  0  0  0
  3 25  1  0  0  0  0
  5 26  1  0  0  0  0
  6 27  1  0  0  0  0
  7 28  1  0  0  0  0
  8 29  1  0  0  0  0
 13 30  1  0  0  0  0
 14 31  1  0  0  0  0
 15 32  1  0  0  0  0
 16 33  1  0  0  0  0
 17 34  1  0  0  0  0
M  END
