 xtb: 6.5.1 (fef0646)
          01242310123D

 28 29  0     0  0            999 V2000
   -3.1979    0.1647   -1.4815 N   0  0  0  0  0  0  0  0  0  0  0  0
   -3.7147   -0.5858   -0.3087 C   0  0  0  0  0  0  0  0  0  0  0  0
   -2.8022   -0.4434    0.9002 C   0  0  0  0  0  0  0  0  0  0  0  0
   -1.4626   -0.8267    0.5899 O   0  0  0  0  0  0  0  0  0  0  0  0
   -0.5524    0.1532    0.3807 C   0  0  0  0  0  0  0  0  0  0  0  0
   -0.7963    1.5501    0.3551 C   0  0  0  0  0  0  0  0  0  0  0  0
    0.2201    2.4485    0.1419 C   0  0  0  0  0  0  0  0  0  0  0  0
    1.5208    2.0273   -0.0606 C   0  0  0  0  0  0  0  0  0  0  0  0
    1.8411    0.6583   -0.0554 C   0  0  0  0  0  0  0  0  0  0  0  0
    3.1559    0.1952   -0.2548 C   0  0  0  0  0  0  0  0  0  0  0  0
    3.4343   -1.1477   -0.2347 C   0  0  0  0  0  0  0  0  0  0  0  0
    2.4214   -2.0713   -0.0162 C   0  0  0  0  0  0  0  0  0  0  0  0
    1.1267   -1.6462    0.1806 C   0  0  0  0  0  0  0  0  0  0  0  0
    0.8099   -0.2894    0.1637 C   0  0  0  0  0  0  0  0  0  0  0  0
   -3.1875    1.1798   -1.3025 H   0  0  0  0  0  0  0  0  0  0  0  0
   -3.7701    0.0024   -2.3251 H   0  0  0  0  0  0  0  0  0  0  0  0
   -2.2324   -0.1299   -1.6914 H   0  0  0  0  0  0  0  0  0  0  0  0
   -3.7860   -1.6469   -0.5772 H   0  0  0  0  0  0  0  0  0  0  0  0
   -4.7350   -0.2595   -0.0718 H   0  0  0  0  0  0  0  0  0  0  0  0
   -3.1233   -1.1106    1.7115 H   0  0  0  0  0  0  0  0  0  0  0  0
   -2.8202    0.5656    1.3200 H   0  0  0  0  0  0  0  0  0  0  0  0
   -1.7933    1.9259    0.4940 H   0  0  0  0  0  0  0  0  0  0  0  0
    0.0018    3.5056    0.1342 H   0  0  0  0  0  0  0  0  0  0  0  0
    2.3041    2.7496   -0.2223 H   0  0  0  0  0  0  0  0  0  0  0  0
    3.9455    0.9097   -0.4209 H   0  0  0  0  0  0  0  0  0  0  0  0
    4.4469   -1.4898   -0.3866 H   0  0  0  0  0  0  0  0  0  0  0  0
    2.6509   -3.1256    0.0027 H   0  0  0  0  0  0  0  0  0  0  0  0
    0.3350   -2.3559    0.3590 H   0  0  0  0  0  0  0  0  0  0  0  0
  1  2  1  0  0  0  0
  2  3  1  0  0  0  0
  3  4  1  0  0  0  0
  4  5  1  0  0  0  0
  5  6  4  0  0  0  0
  6  7  4  0  0  0  0
  7  8  2  0  0  0  0
  8  9  4  0  0  0  0
  9 10  4  0  0  0  0
 10 11  2  0  0  0  0
 11 12  4  0  0  0  0
 12 13  2  0  0  0  0
  5 14  4  0  0  0  0
  9 14  4  0  0  0  0
 13 14  4  0  0  0  0
  1 15  1  0  0  0  0
  1 16  1  0  0  0  0
  1 17  1  0  0  0  0
  2 18  1  0  0  0  0
  2 19  1  0  0  0  0
  3 20  1  0  0  0  0
  3 21  1  0  0  0  0
  6 22  1  0  0  0  0
  7 23  1  0  0  0  0
  8 24  1  0  0  0  0
 10 25  1  0  0  0  0
 11 26  1  0  0  0  0
 12 27  1  0  0  0  0
 13 28  1  0  0  0  0
M  CHG  1   1   1
M  END
