27
 xtb: 6.5.1 (fef0646)
N           -2.56440153159822       -0.93713790593395        1.08070125750892
C           -2.50832501565238        0.26029068005007        0.19527839591935
C           -1.63203818640032        0.06807233386612       -1.04407155599887
C           -0.10076902525637        0.11072164028438       -0.80911324165716
C            0.48960976413700       -1.15905092254085       -0.14786483791730
C            2.02870663812467       -1.10334988766660       -0.13169310212003
C            2.52909593264732        0.15706795924658        0.59940840017671
C            1.91576509477588        1.43895894642568        0.00531001851032
C            0.37800792753174        1.36184129419923       -0.03275455431333
H           -1.61245694557384       -1.08832849809252        1.52519259880106
H           -2.86554641838010       -1.76600000702576        0.62943054215817
H           -3.20585696037214       -0.73312215690215        1.90290118438603
H           -2.22304908772271        1.16110558118214        0.72396169261274
H           -3.55295993058562        0.45228696594575       -0.14626428873105
H           -1.88303635308733        0.82967536620216       -1.78960876849711
H           -1.88599244520912       -0.89005537358056       -1.52577345037175
H            0.37614856994675        0.18546119538793       -1.80589651195843
H            0.14198989911675       -2.06315289134533       -0.69761439188096
H            0.13481945349799       -1.26273628309812        0.85615608481925
H            2.41643910327035       -1.08890988846420       -1.17506185615489
H            2.45279993761745       -2.01310130650872        0.30452658244206
H            3.62352397602207        0.20569377394317        0.57620577840540
H            2.26474211888162        0.06727345456964        1.66174198509981
H            2.29285921718588        1.59948717315965       -0.99420943065666
H            2.23184903626755        2.31327042662162        0.59664217601408
H           -0.06413530241694        2.26452002454034       -0.44591650525932
H           -0.01033949414565        1.29036245542090        1.00396318565537
