28
 xtb: 6.5.1 (fef0646)
N           -3.73884377187095        1.36865578510192        0.96720342507993
C           -2.25273525732030        1.24506417239590        1.01526355929749
C           -1.64346956000241        0.95575653087127       -0.35442438799503
C           -0.14867517900423        0.83301932208610       -0.29788924385135
C            0.44381939102484       -0.38475348074409       -0.10277327836035
C            1.84822918841042       -0.51114569031182        0.00026192934378
C            2.47785102210990       -1.76143132080460        0.19986182385470
C            3.83429505038144       -1.84669371019339        0.30153865363057
C            4.62777695586881       -0.69419126951287        0.21038441025954
C            4.05324611411752        0.52671950606884        0.01827943368258
C            2.64920850534139        0.65218214563222       -0.09190623634749
C            2.01636538625357        1.90089253572407       -0.28713863751274
C            0.66011656143682        1.98424152829094       -0.38398086974545
Cl          -4.79116945350010       -1.77983160065127       -0.58063247135508
H           -4.04624291574451        2.07991102161738        0.36097371494893
H           -4.17178960646941        1.42701627221035        1.88897872612428
H           -4.14325897859947        0.43339287942721        0.55084229531187
H           -1.97019159218791        0.39154731750508        1.69602545178384
H           -1.85034622939092        2.11615955898153        1.46722556150781
H           -1.91179913794194        1.79491970651305       -1.02563594011261
H           -2.06530249747204        0.07526870942829       -0.80795597771646
H           -0.17513276565097       -1.24593245822613        0.01431419146150
H            1.85531617541551       -2.63465065082044        0.31487523083146
H            4.29040278290246       -2.80612419335737        0.48119906258179
H            5.69740203166760       -0.79076253307455        0.27889915465238
H            4.67186076792305        1.39992570454150       -0.08955689047473
H            2.63771153050716        2.78470052579356       -0.39540331325322
H            0.20082560225481        2.95050350897642       -0.55206846500181
