 xtb: 6.5.1 (fef0646)
          01242316593D

 28 28  0     0  0            999 V2000
   -3.7551    1.2694    0.9551 N   0  0  0  0  0  0  0  0  0  0  0  0
   -2.2676    1.1874    1.0226 C   0  0  0  0  0  0  0  0  0  0  0  0
   -1.6376    0.9831   -0.3506 C   0  0  0  0  0  0  0  0  0  0  0  0
   -0.1435    0.8544   -0.2923 C   0  0  0  0  0  0  0  0  0  0  0  0
    0.4409   -0.3640   -0.0762 C   0  0  0  0  0  0  0  0  0  0  0  0
    1.8447   -0.5003    0.0181 C   0  0  0  0  0  0  0  0  0  0  0  0
    2.4659   -1.7515    0.2370 C   0  0  0  0  0  0  0  0  0  0  0  0
    3.8224   -1.8471    0.3251 C   0  0  0  0  0  0  0  0  0  0  0  0
    4.6247   -0.7044    0.2003 C   0  0  0  0  0  0  0  0  0  0  0  0
    4.0587    0.5172   -0.0108 C   0  0  0  0  0  0  0  0  0  0  0  0
    2.6546    0.6531   -0.1075 C   0  0  0  0  0  0  0  0  0  0  0  0
    2.0302    1.9027   -0.3212 C   0  0  0  0  0  0  0  0  0  0  0  0
    0.6738    1.9961   -0.4074 C   0  0  0  0  0  0  0  0  0  0  0  0
   -4.7784   -1.7171   -0.5762 Cl  0  0  0  0  0  0  0  0  0  0  0  0
   -4.0536    2.0619    0.3711 H   0  0  0  0  0  0  0  0  0  0  0  0
   -4.1813    1.3804    1.8855 H   0  0  0  0  0  0  0  0  0  0  0  0
   -4.1407    0.4095    0.5288 H   0  0  0  0  0  0  0  0  0  0  0  0
   -1.9713    0.3669    1.6867 H   0  0  0  0  0  0  0  0  0  0  0  0
   -1.8625    2.0953    1.4847 H   0  0  0  0  0  0  0  0  0  0  0  0
   -1.9089    1.8135   -1.0114 H   0  0  0  0  0  0  0  0  0  0  0  0
   -2.0617    0.0905   -0.8229 H   0  0  0  0  0  0  0  0  0  0  0  0
   -0.1779   -1.2378    0.0285 H   0  0  0  0  0  0  0  0  0  0  0  0
    1.8499   -2.6296    0.3332 H   0  0  0  0  0  0  0  0  0  0  0  0
    4.2850   -2.8064    0.4923 H   0  0  0  0  0  0  0  0  0  0  0  0
    5.6965   -0.7961    0.2728 H   0  0  0  0  0  0  0  0  0  0  0  0
    4.6754    1.3949   -0.1058 H   0  0  0  0  0  0  0  0  0  0  0  0
    2.6437    2.7831   -0.4124 H   0  0  0  0  0  0  0  0  0  0  0  0
    0.2068    2.9542   -0.5633 H   0  0  0  0  0  0  0  0  0  0  0  0
  1  2  1  0  0  0  0
  2  3  1  0  0  0  0
  3  4  1  0  0  0  0
  4  5  2  0  0  0  0
  5  6  4  0  0  0  0
  6  7  4  0  0  0  0
  7  8  2  0  0  0  0
  8  9  4  0  0  0  0
  9 10  2  0  0  0  0
  6 11  4  0  0  0  0
 10 11  4  0  0  0  0
 11 12  4  0  0  0  0
  4 13  4  0  0  0  0
 12 13  2  0  0  0  0
  1 15  1  0  0  0  0
  1 16  1  0  0  0  0
  1 17  1  0  0  0  0
  2 18  1  0  0  0  0
  2 19  1  0  0  0  0
  3 20  1  0  0  0  0
  3 21  1  0  0  0  0
  5 22  1  0  0  0  0
  7 23  1  0  0  0  0
  8 24  1  0  0  0  0
  9 25  1  0  0  0  0
 10 26  1  0  0  0  0
 12 27  1  0  0  0  0
 13 28  1  0  0  0  0
M  END
