25
0.209
N           -3.36396  -0.25985   0.22900
C           -2.48707  -0.73405   1.33997
C           -1.10179  -0.16871   1.26603
C           -0.54806   0.51858   2.36462
C            0.71299   1.03216   2.31137
C           -0.35362  -0.31848   0.13169
C            0.95718   0.19958   0.03879
C            1.50200   0.88750   1.14815
C            2.81413   1.40578   1.05366
C            3.54254   1.24620  -0.08706
C            3.00165   0.56501  -1.18665
C            1.74028   0.05307  -1.12897
Cl          -1.86525  -1.54742  -2.74243
H           -4.32672  -0.61368   0.31658
H           -2.99489  -0.57389  -0.68403
H           -3.40077   0.76762   0.20978
H           -2.42919  -1.82840   1.32857
H           -2.93889  -0.47199   2.30312
H           -1.13938   0.63485   3.25719
H            1.12407   1.55554   3.15791
H           -0.76986  -0.83170  -0.71688
H            3.23007   1.92953   1.89769
H            4.54206   1.64559  -0.14793
H            3.59027   0.44753  -2.08224
H            1.32244  -0.46921  -1.97308
