25
0.0
N           -2.71503  -1.84978  -0.64293
C           -1.69419  -2.01762   0.43276
C           -0.55385  -1.05475   0.30258
C           -0.79595   0.33152   0.31689
C            0.22428   1.22728   0.20542
C            0.73223  -1.50422   0.16791
C            1.81671  -0.60566   0.04784
C            1.55919   0.78544   0.06916
C            2.64398   1.68448  -0.04998
C            3.91814   1.22038  -0.18412
C            4.17349  -0.15785  -0.20624
C            3.15108  -1.05158  -0.09324
Cl          -4.13932   1.34224  -0.06334
H           -3.46322  -2.55414  -0.58084
H           -2.27864  -1.92520  -1.57391
H           -3.15454  -0.91906  -0.58074
H           -1.31083  -3.04411   0.41995
H           -2.16222  -1.89000   1.41541
H           -1.81136   0.67991   0.40288
H            0.02367   2.28520   0.21615
H            0.92824  -2.56189   0.15252
H            2.44810   2.74329  -0.03338
H            4.73769   1.91497  -0.27444
H            5.18692  -0.50963  -0.31392
H            3.34791  -2.11031  -0.11080
