25
0.592
N           -3.30172  -0.79617  -0.45399
C           -2.22278  -1.65197  -1.02695
C           -0.91218  -0.93231  -1.09103
C           -0.46298  -0.36767  -2.30054
C            0.71084   0.32167  -2.36124
C           -0.15990  -0.77212   0.03979
C            1.06269  -0.06399   0.01597
C            1.50757   0.49221  -1.20659
C            2.72978   1.20278  -1.22981
C            3.46802   1.35087  -0.09397
C            3.02632   0.80081   1.11750
C            1.85308   0.11024   1.17516
Cl          -2.19506   0.23553   2.73844
H           -3.04073  -0.47895   0.49213
H           -4.20320  -1.29441  -0.38745
H           -3.44154   0.04513  -1.02885
H           -2.50659  -1.99391  -2.02856
H           -2.10756  -2.56123  -0.42615
H           -1.06636  -0.48566  -3.18475
H            1.04415   0.74840  -3.29200
H           -0.50816  -1.18313   0.97083
H            3.06889   1.62683  -2.15979
H            4.39830   1.89494  -0.12342
H            3.62124   0.92721   2.00770
H            1.51279  -0.31098   2.10610
