25
1.961
N           -3.13410   0.52291  -1.00026
C           -2.01998   1.43984  -1.35845
C           -0.71012   0.94827  -0.83062
C           -0.25533   1.36311   0.43440
C            0.91427   0.88754   0.95275
C            0.02929   0.03955  -1.54183
C            1.24593  -0.47191  -1.03771
C            1.69727  -0.03988   0.23113
C            2.91320  -0.55300   0.73607
C            3.64238  -1.45175   0.01236
C            3.19529  -1.88002  -1.24337
C            2.02488  -1.40391  -1.75970
Cl          -3.02724   0.13244   2.45711
H           -4.05254   0.87048  -1.32262
H           -3.17983   0.39896   0.02894
H           -2.98637  -0.41237  -1.41028
H           -2.22017   2.44376  -0.96606
H           -1.96050   1.55321  -2.44725
H           -0.85118   2.06314   0.99709
H            1.25241   1.21313   1.92278
H           -0.32385  -0.29778  -2.50165
H            3.25705  -0.22415   1.70294
H            4.56925  -1.83660   0.40794
H            3.78176  -2.59098  -1.80402
H            1.68090  -1.73387  -2.72628
