25
0.366
N           -2.62988  -1.94902   0.56986
C           -1.78220  -2.00507  -0.65601
C           -0.63003  -1.05236  -0.58516
C           -0.82941   0.31403  -0.85886
C            0.19520   1.20729  -0.76785
C            0.61296  -1.48339  -0.20901
C            1.70096  -0.58691  -0.10612
C            1.48920   0.78295  -0.39103
C            2.57700   1.68004  -0.28539
C            3.81060   1.23435   0.08405
C            4.02060  -0.12271   0.36600
C            2.99398  -1.01404   0.27452
Cl          -3.81152   1.35362   0.86555
H           -3.42533  -2.60105   0.52476
H           -3.00555  -0.99461   0.70220
H           -2.07509  -2.17622   1.40561
H           -2.38756  -1.77746  -1.54081
H           -1.40949  -3.02421  -0.80798
H           -1.81475   0.64806  -1.13676
H            0.02934   2.24993  -0.97980
H            0.76978  -2.52351   0.01647
H            2.41605   2.72274  -0.50121
H            4.63281   1.92735   0.16146
H            5.00237  -0.46000   0.65711
H            3.15591  -2.05649   0.49140
