48
2.299
N           -7.59865  -1.42443   0.79468
C           -7.89914  -0.03289   1.22796
C           -7.38072   1.01381   0.24045
C           -5.89237   1.11546   0.18996
C           -5.18581   2.25278  -0.04958
C           -3.77575   2.06792  -0.06124
C           -3.38362   0.77854   0.16868
C           -2.02306   0.30905   0.21040
C           -1.62593  -0.97793   0.43530
C           -0.21902  -1.17078   0.42501
C            0.38327  -2.51293   0.65363
C            0.48915  -0.00702   0.18708
C            1.92531   0.12869   0.11618
C            2.63308   1.29151  -0.12197
C            2.03615   2.54798  -0.33610
N            1.50874   3.56800  -0.50844
C            4.06167   1.11056  -0.13347
C            4.94788   2.18026  -0.35988
N            5.70731   3.03917  -0.54312
C            4.46111  -0.19130   0.09544
C            5.82179  -0.68229   0.14357
C            6.21842  -1.98359   0.37288
C            5.30471  -3.13410   0.61538
C            7.63689  -2.14753   0.35803
C            8.31841  -1.00605   0.12405
S            7.24184   0.31385  -0.08676
S            3.05144  -1.17367   0.32213
S           -0.63375   1.31474  -0.02141
S           -4.79507  -0.20945   0.40544
Cl          -9.06831  -1.99681  -2.27507
H           -8.04197  -1.63060  -0.12042
H           -7.92170  -2.13091   1.47488
H           -6.58366  -1.53851   0.67223
H           -7.45715   0.14786   2.21493
H           -8.98295   0.07333   1.36280
H           -7.79175   2.00038   0.48700
H           -7.75089   0.78075  -0.76398
H           -5.65707   3.20917  -0.22070
H           -3.07127   2.86688  -0.23710
H           -2.32678  -1.77986   0.60658
H           -0.38607  -3.26864   0.81710
H            1.03232  -2.50164   1.53006
H            0.97784  -2.82194  -0.20694
H            4.63998  -3.28615  -0.23524
H            4.69144  -2.96133   1.50085
H            5.86443  -4.05719   0.77150
H            8.11344  -3.10312   0.52034
H            9.38770  -0.91580   0.07290
