24
0.0
N           -3.80464  -0.52265   0.81861
C           -3.11815  -0.34398  -0.49625
C           -1.68193   0.04457  -0.34153
C           -1.32689   1.38546  -0.20149
C           -0.01118   1.76209  -0.02988
C           -0.69211  -0.92431  -0.29514
C            0.66057  -0.58017  -0.12328
C            1.01086   0.79821   0.01230
C            2.36371   1.14266   0.18395
C            3.33733   0.16651   0.22035
C            2.99764  -1.17223   0.08867
C            1.68109  -1.54719  -0.08065
H           -4.78834  -0.78714   0.69838
H           -3.76964   0.34600   1.36196
H           -3.34006  -1.25229   1.36880
H           -3.64096   0.41691  -1.08576
H           -3.18724  -1.26997  -1.07726
H           -2.09791   2.13612  -0.23041
H            0.24378   2.80261   0.07382
H           -0.96028  -1.96068  -0.39379
H            2.63322   2.17971   0.28698
H            4.37020   0.44547   0.35219
H            3.76894  -1.92468   0.11868
H            1.42386  -2.58742  -0.18263
