21
0.799
N           -1.16998  -1.77177   0.44905
C           -0.11162  -1.84490  -0.60053
C            0.76317  -0.59443  -0.64421
C            1.59833  -0.39452   0.62034
C            2.46685   0.86753   0.58786
C            3.57228   0.81427  -0.45707
Cl          -2.82008   1.28309  -0.00647
H           -0.76069  -1.75483   1.39611
H           -1.81791  -2.57116   0.40391
H           -1.72393  -0.90827   0.33962
H           -0.58540  -2.00385  -1.57766
H            0.51368  -2.72967  -0.43236
H            0.13056   0.28656  -0.80396
H            1.42544  -0.63462  -1.51747
H            2.23466  -1.27326   0.77963
H            0.93204  -0.36198   1.49094
H            2.90929   1.03592   1.57947
H            1.82649   1.74147   0.41096
H            4.20613   1.70353  -0.42804
H            3.16820   0.74049  -1.46785
H            4.21820  -0.05234  -0.30412
