 xtb: 6.5.1 (fef0646)
          01242317103D

 21 19  0     0  0            999 V2000
   -1.1700   -1.7718    0.4491 N   0  0  0  0  0  0  0  0  0  0  0  0
   -0.1116   -1.8449   -0.6005 C   0  0  0  0  0  0  0  0  0  0  0  0
    0.7632   -0.5944   -0.6442 C   0  0  0  0  0  0  0  0  0  0  0  0
    1.5983   -0.3945    0.6203 C   0  0  0  0  0  0  0  0  0  0  0  0
    2.4669    0.8675    0.5878 C   0  0  0  0  0  0  0  0  0  0  0  0
    3.5723    0.8143   -0.4571 C   0  0  0  0  0  0  0  0  0  0  0  0
   -2.8201    1.2831   -0.0065 Cl  0  0  0  0  0  0  0  0  0  0  0  0
   -0.7607   -1.7548    1.3961 H   0  0  0  0  0  0  0  0  0  0  0  0
   -1.8179   -2.5711    0.4039 H   0  0  0  0  0  0  0  0  0  0  0  0
   -1.7239   -0.9083    0.3396 H   0  0  0  0  0  0  0  0  0  0  0  0
   -0.5854   -2.0038   -1.5777 H   0  0  0  0  0  0  0  0  0  0  0  0
    0.5137   -2.7297   -0.4324 H   0  0  0  0  0  0  0  0  0  0  0  0
    0.1306    0.2866   -0.8040 H   0  0  0  0  0  0  0  0  0  0  0  0
    1.4254   -0.6346   -1.5175 H   0  0  0  0  0  0  0  0  0  0  0  0
    2.2347   -1.2733    0.7796 H   0  0  0  0  0  0  0  0  0  0  0  0
    0.9320   -0.3620    1.4909 H   0  0  0  0  0  0  0  0  0  0  0  0
    2.9093    1.0359    1.5795 H   0  0  0  0  0  0  0  0  0  0  0  0
    1.8265    1.7415    0.4110 H   0  0  0  0  0  0  0  0  0  0  0  0
    4.2061    1.7035   -0.4281 H   0  0  0  0  0  0  0  0  0  0  0  0
    3.1682    0.7405   -1.4679 H   0  0  0  0  0  0  0  0  0  0  0  0
    4.2182   -0.0524   -0.3041 H   0  0  0  0  0  0  0  0  0  0  0  0
  1  2  1  0  0  0  0
  2  3  1  0  0  0  0
  3  4  1  0  0  0  0
  4  5  1  0  0  0  0
  5  6  1  0  0  0  0
  1  8  1  0  0  0  0
  1  9  1  0  0  0  0
  1 10  1  0  0  0  0
  2 11  1  0  0  0  0
  2 12  1  0  0  0  0
  3 13  1  0  0  0  0
  3 14  1  0  0  0  0
  4 15  1  0  0  0  0
  4 16  1  0  0  0  0
  5 17  1  0  0  0  0
  5 18  1  0  0  0  0
  6 19  1  0  0  0  0
  6 20  1  0  0  0  0
  6 21  1  0  0  0  0
M  END
