 xtb: 6.5.1 (fef0646)
          01242315353D

 47 50  0     0  0            999 V2000
    5.4648    1.9419    2.9766 N   0  0  0  0  0  0  0  0  0  0  0  0
    4.3271    1.4343    2.1774 C   0  0  0  0  0  0  0  0  0  0  0  0
    4.0696    2.3226    0.9671 C   0  0  0  0  0  0  0  0  0  0  0  0
    5.1562    2.2726   -0.0578 C   0  0  0  0  0  0  0  0  0  0  0  0
    5.2556    3.0127   -1.2013 C   0  0  0  0  0  0  0  0  0  0  0  0
    6.3879    2.7035   -1.9732 C   0  0  0  0  0  0  0  0  0  0  0  0
    7.1750    1.7215   -1.4234 C   0  0  0  0  0  0  0  0  0  0  0  0
    8.3804    1.1520   -1.9148 C   0  0  0  0  0  0  0  0  0  0  0  0
    9.1494    0.1686   -1.3374 C   0  0  0  0  0  0  0  0  0  0  0  0
   10.2802   -0.1853   -2.0830 C   0  0  0  0  0  0  0  0  0  0  0  0
   11.2422   -1.2278   -1.6376 C   0  0  0  0  0  0  0  0  0  0  0  0
   10.3811    0.5453   -3.2619 C   0  0  0  0  0  0  0  0  0  0  0  0
   11.3685    0.4685   -4.2743 C   0  0  0  0  0  0  0  0  0  0  0  0
   11.4553    1.2016   -5.4526 C   0  0  0  0  0  0  0  0  0  0  0  0
   10.5604    2.1903   -5.8683 C   0  0  0  0  0  0  0  0  0  0  0  0
    9.8421    3.0102   -6.2401 N   0  0  0  0  0  0  0  0  0  0  0  0
   12.5887    0.8551   -6.2542 C   0  0  0  0  0  0  0  0  0  0  0  0
   12.8085    1.4937   -7.4790 C   0  0  0  0  0  0  0  0  0  0  0  0
   12.9294    2.0537   -8.4771 N   0  0  0  0  0  0  0  0  0  0  0  0
   13.3764   -0.1410   -5.6967 C   0  0  0  0  0  0  0  0  0  0  0  0
   14.5684   -0.7198   -6.2111 C   0  0  0  0  0  0  0  0  0  0  0  0
   15.3297   -1.7511   -5.6842 C   0  0  0  0  0  0  0  0  0  0  0  0
   15.0382   -2.4900   -4.4257 C   0  0  0  0  0  0  0  0  0  0  0  0
   16.4479   -2.0405   -6.4948 C   0  0  0  0  0  0  0  0  0  0  0  0
   16.5371   -1.2560   -7.5996 C   0  0  0  0  0  0  0  0  0  0  0  0
   15.2543   -0.1205   -7.7090 S   0  0  0  0  0  0  0  0  0  0  0  0
   12.7031   -0.6453   -4.1772 S   0  0  0  0  0  0  0  0  0  0  0  0
    9.0568    1.6805   -3.4329 S   0  0  0  0  0  0  0  0  0  0  0  0
    6.4930    1.1667    0.0649 S   0  0  0  0  0  0  0  0  0  0  0  0
    5.6382    1.3330    3.7831 H   0  0  0  0  0  0  0  0  0  0  0  0
    5.2774    2.8938    3.3099 H   0  0  0  0  0  0  0  0  0  0  0  0
    6.3094    1.9560    2.3900 H   0  0  0  0  0  0  0  0  0  0  0  0
    3.4335    1.4098    2.7998 H   0  0  0  0  0  0  0  0  0  0  0  0
    4.5566    0.4235    1.8407 H   0  0  0  0  0  0  0  0  0  0  0  0
    3.9192    3.3606    1.2710 H   0  0  0  0  0  0  0  0  0  0  0  0
    3.1399    2.0011    0.4924 H   0  0  0  0  0  0  0  0  0  0  0  0
    4.5387    3.7594   -1.4910 H   0  0  0  0  0  0  0  0  0  0  0  0
    6.6349    3.1749   -2.9092 H   0  0  0  0  0  0  0  0  0  0  0  0
    8.9018   -0.2915   -0.3971 H   0  0  0  0  0  0  0  0  0  0  0  0
   10.9304   -1.6337   -0.6806 H   0  0  0  0  0  0  0  0  0  0  0  0
   12.2426   -0.8097   -1.5363 H   0  0  0  0  0  0  0  0  0  0  0  0
   11.2949   -2.0373   -2.3642 H   0  0  0  0  0  0  0  0  0  0  0  0
   14.0516   -2.9497   -4.4662 H   0  0  0  0  0  0  0  0  0  0  0  0
   15.0614   -1.8175   -3.5693 H   0  0  0  0  0  0  0  0  0  0  0  0
   15.7811   -3.2678   -4.2790 H   0  0  0  0  0  0  0  0  0  0  0  0
   17.1606   -2.8092   -6.2588 H   0  0  0  0  0  0  0  0  0  0  0  0
   17.2815   -1.2689   -8.3700 H   0  0  0  0  0  0  0  0  0  0  0  0
  1  2  1  0  0  0  0
  2  3  1  0  0  0  0
  3  4  1  0  0  0  0
  4  5  2  0  0  0  0
  5  6  4  0  0  0  0
  6  7  4  0  0  0  0
  7  8  1  0  0  0  0
  8  9  4  0  0  0  0
  9 10  4  0  0  0  0
 10 11  1  0  0  0  0
 10 12  4  0  0  0  0
 12 13  4  0  0  0  0
 13 14  4  0  0  0  0
 14 15  1  0  0  0  0
 15 16  3  0  0  0  0
 14 17  1  0  0  0  0
 17 18  1  0  0  0  0
 18 19  3  0  0  0  0
 17 20  4  0  0  0  0
 20 21  1  0  0  0  0
 21 22  4  0  0  0  0
 22 23  1  0  0  0  0
 22 24  4  0  0  0  0
 24 25  2  0  0  0  0
 21 26  1  0  0  0  0
 25 26  1  0  0  0  0
 13 27  1  0  0  0  0
 20 27  1  0  0  0  0
  8 28  1  0  0  0  0
 12 28  1  0  0  0  0
  4 29  1  0  0  0  0
  7 29  1  0  0  0  0
  1 30  1  0  0  0  0
  1 31  1  0  0  0  0
  1 32  1  0  0  0  0
  2 33  1  0  0  0  0
  2 34  1  0  0  0  0
  3 35  1  0  0  0  0
  3 36  1  0  0  0  0
  5 37  1  0  0  0  0
  6 38  1  0  0  0  0
  9 39  1  0  0  0  0
 11 40  1  0  0  0  0
 11 41  1  0  0  0  0
 11 42  1  0  0  0  0
 23 43  1  0  0  0  0
 23 44  1  0  0  0  0
 23 45  1  0  0  0  0
 24 46  1  0  0  0  0
 25 47  1  0  0  0  0
M  CHG  1   1   1
M  END
