30

N          1.00262        0.51398        2.22549
C          2.46598        0.54618        2.28142
C          3.04614       -0.49673        1.33448
C          4.57804       -0.50224        1.34100
C          5.15162       -0.83720        2.71770
C          6.67462       -0.83720        2.72131
C          7.19642       -1.14411        4.12795
C          8.72216       -1.13945        4.17269
C          9.22840       -1.44978        5.57093
Cl         0.05159        2.01178       -0.04542
H          0.55375        1.21487        2.82259
H          0.54989       -0.39075        2.32877
H          0.69810        0.87789        1.27665
H          2.72230        0.34785        3.32637
H          2.78651        1.55942        2.01939
H          2.70545       -0.30165        0.30978
H          2.67727       -1.49370        1.60340
H          4.94872        0.47611        1.01121
H          4.93129       -1.23880        0.61020
H          4.77974       -1.81810        3.03814
H          4.81248       -0.10496        3.45708
H          7.04731        0.14279        2.39733
H          7.05378       -1.58126        2.01058
H          6.82257       -2.12306        4.44919
H          6.80418       -0.40251        4.83470
H          9.09915       -0.15675        3.86232
H          9.11929       -1.87731        3.46987
H          8.87332       -0.70587        6.29210
H         10.32330       -1.44415        5.58830
H          8.88801       -2.43682        5.90069
