23
 xtb: 6.5.1 (fef0646)
N           -2.43248708211351        1.67319757592532       -0.61090613426711
C           -1.38091971954103        1.98678739506317        0.40302025327333
C           -0.15053584394016        1.14757286207048        0.24158214756670
C            1.09859132946959        1.73316248480866        0.09056423136932
C            2.23152483817175        0.95910395976125       -0.04720367839281
C            2.15469254565377       -0.43296353368673       -0.03311178994896
C            3.33280678103911       -1.29153113698086       -0.16953031894721
C            4.59776672239242       -0.87699518399561       -0.09693289352601
C            0.89524201029790       -1.01333244011428        0.11200640238290
C           -0.23481178150371       -0.23570795692708        0.24558879153478
Cl          -3.47703896076950       -1.50745542369442        0.00453727011645
H           -3.22917747621899        2.34299001830522       -0.53085520083404
H           -2.76074052191437        0.74395249468314       -0.51886973266717
H           -2.03430484127537        1.81375302235340       -1.56496137206683
H           -1.78028697054420        1.85290525746393        1.41354876738165
H           -1.09456197101580        3.06513204152885        0.36057110175955
H            1.18918157157285        2.81327259496564        0.07859069081324
H            3.19009535524126        1.43099751619764       -0.19421870387757
H            3.13133471978590       -2.32127939254274       -0.45791487531865
H            4.82322586597450        0.11320663780279        0.23264929009068
H            5.40330535280995       -1.57180110031256       -0.16298172583140
H            0.79690461394609       -2.08029629697530        0.10216003039836
H           -1.20687494389172       -0.68379730757412        0.34785493054730
