23
 xtb: 6.5.1 (fef0646)
N           -2.38449173801514        1.81099689997771       -0.62860208581176
C           -1.35335160420497        2.03252922028426        0.42911879526543
C           -0.13979331285024        1.17414848541110        0.24566107229837
C            1.11141779636592        1.74600434777262        0.06094762999409
C            2.23162570394527        0.95828853256289       -0.10068269248192
C            2.13553683765475       -0.43167692756816       -0.08293534396120
C            3.31524842866129       -1.28406768207132       -0.26012673557907
C            4.55432899204059       -0.91246695533392        0.04992312116727
C            0.87513778805674       -1.00020816237788        0.09207495696150
C           -0.24194381297990       -0.20857737408583        0.25689739113010
Cl          -3.47855869782274       -1.67547294077011        0.04348093728784
H           -3.21562677987086        2.38014973709175       -0.52832393914824
H           -2.74812202243128        0.78268014278785       -0.54345073843597
H           -2.01528439817490        1.86799947445369       -1.56555914480372
H           -1.78040785989884        1.85313436515792        1.41551077468152
H           -1.07945649544603        3.07717988303341        0.38597897856152
H            1.19601064551047        2.81672013581571        0.06631439594915
H            3.19140901570291        1.42532708461334       -0.22046657269081
H            3.13362773960153       -2.29973121689732       -0.55627535912240
H            4.79504785784077        0.08159225930882        0.35444049072236
H            5.39681995753811       -1.57199543239868       -0.13370212304804
H            0.78781410152507       -2.07615373056204        0.09787276261030
H           -1.20980553643198       -0.67295423798123        0.35845646383992
