  27

 N         -3.6273359859        0.4704796146        1.3086528637
 C         -3.4507301433       -0.7929651857        0.5363425722
 C         -2.7169666566       -0.5766225459       -0.7857830323
 C         -1.3046672238       -0.1036952617       -0.6052984086
 C         -0.3004900669       -1.0043125776       -0.2827200833
 C          1.0292688004       -0.5851417122       -0.0951895410
 C          2.0628147232       -1.4848829011        0.2243411811
 C          3.3563619621       -1.0372471086        0.3984514596
 C          3.6602516193        0.3096532329        0.2608586174
 C          2.6733392945        1.2214948196       -0.0516851230
 C          1.3428059320        0.8023524359       -0.2362682192
 C          0.3083690283        1.6986211908       -0.5558846998
 C         -0.9840360043        1.2488793361       -0.7341743112
 H         -4.1198762202        0.3084070877        2.2001859730
 H         -4.1759891340        1.1585094742        0.7718671312
 H         -2.7146087118        0.9034989075        1.5296091486
 H         -4.4349137206       -1.2430715437        0.3567950046
 H         -2.8999970595       -1.5151994790        1.1496560605
 H         -3.2657202516        0.1499816314       -1.3928881878
 H         -2.7091332314       -1.5003361281       -1.3748060339
 H         -0.5395102335       -2.0477368008       -0.1805539260
 H          1.8343009028       -2.5316466731        0.3297671217
 H          4.1379468234       -1.7389495537        0.6418580818
 H          4.6759577046        0.6451960646        0.3979746130
 H          2.9157619284        2.2649937149       -0.1591068794
 H          0.5369136435        2.7447005736       -0.6669517628
 H         -1.7619992475        1.9494678207       -0.9872238697
          27
        -35.31601434
 N         -3.3260091891       -1.1638327787       -1.1683240006
 C         -3.6869509585       -0.0158162904       -0.2878572615
 C         -2.7796123352        0.0921870911        0.9363910506
 C         -1.3407966969        0.3290731708        0.5827875903
 C         -0.4173526298       -0.7044190604        0.6362256034
 C          0.9319623776       -0.5011793795        0.2936642256
 C          1.8857774140       -1.5339942568        0.3523866807
 C          3.2013377158       -1.2969205056        0.0108695569
 C          3.6066617777       -0.0339660196       -0.3969006525
 C          2.7004493509        1.0037448493       -0.4658017168
 C          1.3505863458        0.7999576949       -0.1246643716
 C          0.3970477082        1.8310974673       -0.1769257644
 C         -0.9173796874        1.5932863384        0.1697095850
 H         -3.9406058064       -1.2210406499       -1.9945527646
 H         -3.4042427235       -2.0580479649       -0.6617100199
 H         -2.3528160689       -1.0805826092       -1.5076926611
 H         -4.7349434701       -0.1154563530        0.0209258611
 H         -3.6348122797        0.9121190745       -0.8688767569
 H         -2.8587187052       -0.8233973218        1.5307916654
 H         -3.1203678544        0.8976518202        1.5959458578
 H         -0.7337068745       -1.6816942827        0.9537094091
 H          1.5791175507       -2.5152151711        0.6719480979
 H          3.9211339291       -2.0979907730        0.0627812247
 H          4.6383529587        0.1373153978       -0.6598804396
 H          3.0215353485        1.9820813689       -0.7803198477
 H          0.7045619873        2.8148624849       -0.4876973113
 H         -1.6339479700        2.3964232814        0.1293114253
