  23

 N          1.3906000000       -0.4399900000        0.1294000000
 C          2.8106900000       -0.1233400000        0.1112400000
 C          3.1615700000        0.9951800000       -0.8260300000
 C          2.6315900000        2.2801200000       -0.6356300000
 C          2.9344300000        3.3176400000       -1.5258000000
 C          3.7903100000        3.1033400000       -2.6088600000
 C          4.0950800000        4.1518400000       -3.5934200000
 C          4.1480500000        5.4633900000       -3.3270800000
 C          4.3192100000        1.8219600000       -2.7991200000
 C          4.0122600000        0.7784300000       -1.9181000000
 Cl        -0.9206800000        0.3269500000       -1.2584400000
 H          1.0533500000       -1.1352200000        0.7933900000
 H          1.0046600000       -0.7079400000       -0.8021800000
 H          0.7598300000        0.3842100000        0.2228800000
 H          3.3280900000       -1.0492300000       -0.1592100000
 H          3.1004300000        0.1376300000        1.1343700000
 H          1.9504000000        2.4916200000        0.1852600000
 H          2.4634100000        4.2857600000       -1.3719600000
 H          4.2960800000        3.8129300000       -4.6076700000
 H          3.9745300000        5.8690300000       -2.3354400000
 H          4.3786600000        6.1721800000       -4.1148200000
 H          4.9738100000        1.6204300000       -3.6444800000
 H          4.4379200000       -0.2042500000       -2.1108700000
