 xtb: 6.5.1 (fef0646)
          01242317073D

 26 25  0     0  0            999 V2000
   -3.2216   -0.7367    0.1979 N   0  0  0  0  0  0  0  0  0  0  0  0
   -2.6151   -2.0981    0.1875 C   0  0  0  0  0  0  0  0  0  0  0  0
   -1.5577   -2.2567   -0.9025 C   0  0  0  0  0  0  0  0  0  0  0  0
   -0.4078   -1.3057   -0.7488 C   0  0  0  0  0  0  0  0  0  0  0  0
   -0.2647   -0.2155   -1.5949 C   0  0  0  0  0  0  0  0  0  0  0  0
    0.7818    0.6644   -1.4380 C   0  0  0  0  0  0  0  0  0  0  0  0
    1.7251    0.4935   -0.4224 C   0  0  0  0  0  0  0  0  0  0  0  0
    2.7516    1.4383   -0.3245 O   0  0  0  0  0  0  0  0  0  0  0  0
    3.6637    1.2148    0.7289 C   0  0  0  0  0  0  0  0  0  0  0  0
    1.5725   -0.6060    0.4262 C   0  0  0  0  0  0  0  0  0  0  0  0
    0.5250   -1.4841    0.2629 C   0  0  0  0  0  0  0  0  0  0  0  0
   -0.9994    1.8173    1.2631 Cl  0  0  0  0  0  0  0  0  0  0  0  0
   -3.6200   -0.5055   -0.7218 H   0  0  0  0  0  0  0  0  0  0  0  0
   -2.5118   -0.0174    0.4185 H   0  0  0  0  0  0  0  0  0  0  0  0
   -3.9722   -0.6550    0.8979 H   0  0  0  0  0  0  0  0  0  0  0  0
   -3.4048   -2.8486    0.0605 H   0  0  0  0  0  0  0  0  0  0  0  0
   -2.1686   -2.3029    1.1675 H   0  0  0  0  0  0  0  0  0  0  0  0
   -2.0197   -2.1064   -1.8838 H   0  0  0  0  0  0  0  0  0  0  0  0
   -1.1710   -3.2821   -0.9161 H   0  0  0  0  0  0  0  0  0  0  0  0
   -0.9848   -0.0610   -2.3805 H   0  0  0  0  0  0  0  0  0  0  0  0
    0.8896    1.5092   -2.0954 H   0  0  0  0  0  0  0  0  0  0  0  0
    4.1656    0.2562    0.5925 H   0  0  0  0  0  0  0  0  0  0  0  0
    3.1430    1.2379    1.6875 H   0  0  0  0  0  0  0  0  0  0  0  0
    4.4128    2.0080    0.7175 H   0  0  0  0  0  0  0  0  0  0  0  0
    2.2789   -0.7698    1.2200 H   0  0  0  0  0  0  0  0  0  0  0  0
    0.4193   -2.3256    0.9269 H   0  0  0  0  0  0  0  0  0  0  0  0
  1  2  1  0  0  0  0
  2  3  1  0  0  0  0
  3  4  1  0  0  0  0
  4  5  4  0  0  0  0
  5  6  4  0  0  0  0
  6  7  4  0  0  0  0
  7  8  1  0  0  0  0
  8  9  1  0  0  0  0
  7 10  4  0  0  0  0
  4 11  4  0  0  0  0
 10 11  4  0  0  0  0
  1 13  1  0  0  0  0
  1 14  1  0  0  0  0
  1 15  1  0  0  0  0
  2 16  1  0  0  0  0
  2 17  1  0  0  0  0
  3 18  1  0  0  0  0
  3 19  1  0  0  0  0
  5 20  1  0  0  0  0
  6 21  1  0  0  0  0
  9 22  1  0  0  0  0
  9 23  1  0  0  0  0
  9 24  1  0  0  0  0
 10 25  1  0  0  0  0
 11 26  1  0  0  0  0
M  END
