 xtb: 6.5.1 (fef0646)
          01242317103D

 20 19  0     0  0            999 V2000
   -2.3173    0.6573   -0.2705 N   0  0  0  0  0  0  0  0  0  0  0  0
   -1.3896    0.0511    0.7309 C   0  0  0  0  0  0  0  0  0  0  0  0
   -0.4606   -1.0048    0.1357 C   0  0  0  0  0  0  0  0  0  0  0  0
    0.5245   -0.4686   -0.9084 C   0  0  0  0  0  0  0  0  0  0  0  0
    1.5130    0.5781   -0.3802 C   0  0  0  0  0  0  0  0  0  0  0  0
    2.4478    0.0481    0.6991 C   0  0  0  0  0  0  0  0  0  0  0  0
   -2.8765   -0.0679   -0.7311 H   0  0  0  0  0  0  0  0  0  0  0  0
   -1.8019    1.1661   -0.9965 H   0  0  0  0  0  0  0  0  0  0  0  0
   -2.9623    1.3196    0.1733 H   0  0  0  0  0  0  0  0  0  0  0  0
   -1.9880   -0.3924    1.5364 H   0  0  0  0  0  0  0  0  0  0  0  0
   -0.8041    0.8439    1.2082 H   0  0  0  0  0  0  0  0  0  0  0  0
   -1.0729   -1.7956   -0.3130 H   0  0  0  0  0  0  0  0  0  0  0  0
    0.0974   -1.5014    0.9375 H   0  0  0  0  0  0  0  0  0  0  0  0
   -0.0377   -0.0526   -1.7518 H   0  0  0  0  0  0  0  0  0  0  0  0
    1.0935   -1.3039   -1.3343 H   0  0  0  0  0  0  0  0  0  0  0  0
    0.9631    1.4473   -0.0017 H   0  0  0  0  0  0  0  0  0  0  0  0
    2.1100    0.9673   -1.2155 H   0  0  0  0  0  0  0  0  0  0  0  0
    1.8993   -0.2642    1.5880 H   0  0  0  0  0  0  0  0  0  0  0  0
    3.1706    0.8023    1.0155 H   0  0  0  0  0  0  0  0  0  0  0  0
    3.0106   -0.8157    0.3431 H   0  0  0  0  0  0  0  0  0  0  0  0
  1  2  1  0  0  0  0
  2  3  1  0  0  0  0
  3  4  1  0  0  0  0
  4  5  1  0  0  0  0
  5  6  1  0  0  0  0
  1  7  1  0  0  0  0
  1  8  1  0  0  0  0
  1  9  1  0  0  0  0
  2 10  1  0  0  0  0
  2 11  1  0  0  0  0
  3 12  1  0  0  0  0
  3 13  1  0  0  0  0
  4 14  1  0  0  0  0
  4 15  1  0  0  0  0
  5 16  1  0  0  0  0
  5 17  1  0  0  0  0
  6 18  1  0  0  0  0
  6 19  1  0  0  0  0
  6 20  1  0  0  0  0
M  CHG  1   1   1
M  END
