 xtb: 6.5.1 (fef0646)
          01242310073D

 50 53  0     0  0            999 V2000
   -7.8878    0.2026    1.6891 N   0  0  0  0  0  0  0  0  0  0  0  0
   -8.2077    0.9572    0.4471 C   0  0  0  0  0  0  0  0  0  0  0  0
   -7.6209    0.2867   -0.7920 C   0  0  0  0  0  0  0  0  0  0  0  0
   -6.1599    0.0350   -0.6658 C   0  0  0  0  0  0  0  0  0  0  0  0
   -5.6000   -1.1190   -0.2174 C   0  0  0  0  0  0  0  0  0  0  0  0
   -4.1818   -1.0877   -0.1731 C   0  0  0  0  0  0  0  0  0  0  0  0
   -3.6458    0.0991   -0.5883 C   0  0  0  0  0  0  0  0  0  0  0  0
   -2.2407    0.4097   -0.6442 C   0  0  0  0  0  0  0  0  0  0  0  0
   -1.7039    1.6011   -1.0500 C   0  0  0  0  0  0  0  0  0  0  0  0
   -0.2856    1.6561   -1.0128 C   0  0  0  0  0  0  0  0  0  0  0  0
    0.4619    2.8587   -1.4718 C   0  0  0  0  0  0  0  0  0  0  0  0
    0.2866    0.4885   -0.5410 C   0  0  0  0  0  0  0  0  0  0  0  0
    1.6934    0.1768   -0.3350 C   0  0  0  0  0  0  0  0  0  0  0  0
    2.1334   -1.1316   -0.4477 C   0  0  0  0  0  0  0  0  0  0  0  0
    3.4677   -1.5032   -0.2646 C   0  0  0  0  0  0  0  0  0  0  0  0
    4.4640   -0.5950    0.0474 C   0  0  0  0  0  0  0  0  0  0  0  0
    5.8377   -1.0513    0.2267 C   0  0  0  0  0  0  0  0  0  0  0  0
    7.0107   -0.3802   -0.0508 C   0  0  0  0  0  0  0  0  0  0  0  0
    7.1032    0.9791   -0.6517 C   0  0  0  0  0  0  0  0  0  0  0  0
    8.1733   -1.1396    0.2818 C   0  0  0  0  0  0  0  0  0  0  0  0
    7.9049   -2.3698    0.7759 C   0  0  0  0  0  0  0  0  0  0  0  0
    6.2089   -2.6390    0.8473 S   0  0  0  0  0  0  0  0  0  0  0  0
    4.0670    0.7754    0.2427 C   0  0  0  0  0  0  0  0  0  0  0  0
    4.8179    1.7717    0.6671 N   0  0  0  0  0  0  0  0  0  0  0  0
    3.8758    3.1084    0.8056 S   0  0  0  0  0  0  0  0  0  0  0  0
    2.4535    2.4318    0.3430 N   0  0  0  0  0  0  0  0  0  0  0  0
    2.6695    1.1661    0.0494 C   0  0  0  0  0  0  0  0  0  0  0  0
   -0.9639   -0.6788   -0.2080 S   0  0  0  0  0  0  0  0  0  0  0  0
   -4.9237    1.1925   -1.0430 S   0  0  0  0  0  0  0  0  0  0  0  0
   -8.2150   -3.2077    0.9982 Cl  0  0  0  0  0  0  0  0  0  0  0  0
   -6.8722    0.2401    1.8882 H   0  0  0  0  0  0  0  0  0  0  0  0
   -8.1323   -0.7952    1.5813 H   0  0  0  0  0  0  0  0  0  0  0  0
   -8.3847    0.5707    2.5171 H   0  0  0  0  0  0  0  0  0  0  0  0
   -7.8174    1.9782    0.5369 H   0  0  0  0  0  0  0  0  0  0  0  0
   -9.2953    1.0613    0.3449 H   0  0  0  0  0  0  0  0  0  0  0  0
   -7.8051    0.8950   -1.6858 H   0  0  0  0  0  0  0  0  0  0  0  0
   -8.1295   -0.6677   -0.9716 H   0  0  0  0  0  0  0  0  0  0  0  0
   -6.1888   -1.9691    0.0931 H   0  0  0  0  0  0  0  0  0  0  0  0
   -3.5761   -1.9165    0.1596 H   0  0  0  0  0  0  0  0  0  0  0  0
   -2.3120    2.4293   -1.3783 H   0  0  0  0  0  0  0  0  0  0  0  0
   -0.1019    3.4099   -2.2257 H   0  0  0  0  0  0  0  0  0  0  0  0
    1.4208    2.5777   -1.9089 H   0  0  0  0  0  0  0  0  0  0  0  0
    0.6586    3.5306   -0.6355 H   0  0  0  0  0  0  0  0  0  0  0  0
    1.4087   -1.8880   -0.6976 H   0  0  0  0  0  0  0  0  0  0  0  0
    3.7444   -2.5383   -0.3767 H   0  0  0  0  0  0  0  0  0  0  0  0
    8.0257    1.0968   -1.2212 H   0  0  0  0  0  0  0  0  0  0  0  0
    7.0830    1.7445    0.1254 H   0  0  0  0  0  0  0  0  0  0  0  0
    6.2663    1.1644   -1.3261 H   0  0  0  0  0  0  0  0  0  0  0  0
    9.1741   -0.7583    0.1413 H   0  0  0  0  0  0  0  0  0  0  0  0
    8.6374   -3.0934    1.0825 H   0  0  0  0  0  0  0  0  0  0  0  0
  1  2  1  0  0  0  0
  2  3  1  0  0  0  0
  3  4  1  0  0  0  0
  4  5  2  0  0  0  0
  5  6  4  0  0  0  0
  6  7  2  0  0  0  0
  7  8  1  0  0  0  0
  8  9  2  0  0  0  0
  9 10  4  0  0  0  0
 10 11  1  0  0  0  0
 10 12  4  0  0  0  0
 12 13  1  0  0  0  0
 13 14  4  0  0  0  0
 14 15  4  0  0  0  0
 15 16  4  0  0  0  0
 16 17  1  0  0  0  0
 17 18  2  0  0  0  0
 18 19  1  0  0  0  0
 18 20  4  0  0  0  0
 20 21  2  0  0  0  0
 17 22  1  0  0  0  0
 21 22  1  0  0  0  0
 16 23  1  0  0  0  0
 23 24  4  0  0  0  0
 24 25  2  0  0  0  0
 25 26  2  0  0  0  0
 13 27  1  0  0  0  0
 23 27  1  0  0  0  0
 26 27  4  0  0  0  0
  8 28  1  0  0  0  0
 12 28  1  0  0  0  0
  4 29  1  0  0  0  0
  7 29  1  0  0  0  0
  1 31  1  0  0  0  0
  1 32  1  0  0  0  0
  1 33  1  0  0  0  0
  2 34  1  0  0  0  0
  2 35  1  0  0  0  0
  3 36  1  0  0  0  0
  3 37  1  0  0  0  0
  5 38  1  0  0  0  0
  6 39  1  0  0  0  0
  9 40  1  0  0  0  0
 11 41  1  0  0  0  0
 11 42  1  0  0  0  0
 11 43  1  0  0  0  0
 14 44  1  0  0  0  0
 15 45  1  0  0  0  0
 19 46  1  0  0  0  0
 19 47  1  0  0  0  0
 19 48  1  0  0  0  0
 20 49  1  0  0  0  0
 21 50  1  0  0  0  0
M  END
