21

N          1.18710        0.33560       -0.72841
C          2.46560       -0.03063       -0.06298
C          2.28041        0.07129        1.44710
C          2.93877       -1.39320       -0.50677
C          4.16354       -1.51823       -1.18328
C          4.63250       -2.77092       -1.58177
C          3.88345       -3.91431       -1.31663
C          2.66224       -3.80681       -0.65690
C          2.19016       -2.55649       -0.25345
H          0.91297        1.30266       -0.51954
H          0.42327       -0.28665       -0.44129
H          1.28522        0.24455       -1.74725
H          3.17993        0.73733       -0.38268
H          1.51962       -0.62323        1.81926
H          1.97656        1.08382        1.73668
H          3.21821       -0.15668        1.96650
H          4.78524       -0.64898       -1.39558
H          5.59124       -2.86148       -2.08958
H          4.25752       -4.89122       -1.61582
H          2.08651       -4.70642       -0.44452
H          1.24267       -2.52249        0.27971
