43
2.198
N            6.59869  -0.06435   0.26640
C            5.43906   0.87127   0.23599
C            4.10682   0.13478   0.25280
O            2.99982   1.03433   0.22594
C            1.75513   0.43416   0.24142
C            1.53515  -0.93883   0.26054
C            0.26029  -1.46483   0.27854
C           -0.87565  -0.66005   0.27866
C           -0.70142   0.75310   0.26022
C           -1.82151   1.63482   0.26314
C           -1.58852   3.00213   0.24030
C           -0.30139   3.52091   0.21795
C            0.77996   2.68415   0.21832
C            0.60896   1.29514   0.23920
C           -2.22173  -1.21804   0.29674
C           -2.45466  -2.58608   0.30635
C           -3.74283  -3.10845   0.32661
C           -4.82666  -2.27921   0.33801
C           -4.65618  -0.88025   0.32783
C           -5.76528  -0.01076   0.33983
C           -5.58397   1.34137   0.32900
C           -4.30243   1.88130   0.30459
C           -3.17303   1.07757   0.29092
C           -3.34459  -0.33737   0.30503
Cl           6.13845  -2.26288  -2.43244
H            7.50091   0.43321   0.21482
H            6.54972  -0.71856  -0.52893
H            6.59428  -0.62711   1.12686
H            5.48936   1.50455  -0.65649
H            5.48578   1.55934   1.08721
H            4.02716  -0.48230   1.15395
H            4.03315  -0.52951  -0.61482
H            2.37457  -1.61022   0.26105
H            0.15240  -2.53400   0.29464
H           -2.41604   3.68778   0.23874
H           -0.15432   4.58864   0.20107
H            1.78107   3.07961   0.20242
H           -1.62677  -3.27114   0.29691
H           -3.88516  -4.17714   0.33367
H           -5.82374  -2.68547   0.35439
H           -6.75794  -0.42765   0.35820
H           -6.43935   1.99751   0.33925
H           -4.19960   2.95098   0.29729
