43
 xtb: 6.5.1 (fef0646)
N            6.58944845738285       -0.10409254574060        0.22457625509431
C            5.44375466122246        0.85189119962565        0.24509921789258
C            4.10474769542198        0.12713973974663        0.22930774913118
O            3.00074517566350        1.03064771726776        0.22004943022301
C            1.75548816016328        0.43284399436930        0.23252720401289
C            1.53426021133914       -0.94037043751739        0.23509689628480
C            0.25938461483460       -1.46575841383684        0.25970396132124
C           -0.87604640329255       -0.66034981936712        0.27747150004840
C           -0.70110415454326        0.75275751424945        0.26250123531590
C           -1.82096679641229        1.63479074072918        0.26773721027769
C           -1.58728526247179        3.00227919483752        0.26228240501610
C           -0.29989865083166        3.52077990242708        0.24807191097105
C            0.78108189111658        2.68351086597102        0.23679109030122
C            0.60955684478701        1.29437788346012        0.24330551528559
C           -2.22202863863079       -1.21795974547381        0.30949135211211
C           -2.45494313521647       -2.58583828525811        0.34450917808943
C           -3.74310956917537       -3.10796055395301        0.36909157914466
C           -4.82706362802215       -2.27857920842526        0.35746566414812
C           -4.65649411839362       -0.87976896723639        0.32730585404507
C           -5.76572777795016       -0.01018673175413        0.31830387259966
C           -5.58442408187499        1.34175662031983        0.28557613526511
C           -4.30265835055707        1.88146277633894        0.26754549133028
C           -3.17294380329737        1.07771034079332        0.28001711462646
C           -3.34479274064502       -0.33710473572323        0.30552881045550
Cl           6.14296934022864       -2.20928098097505       -2.40234717071569
H            7.50028136023333        0.41951439255523        0.20879391244443
H            6.54286786823440       -0.72019209060868       -0.54993143284406
H            6.59080405960561       -0.64906016353015        1.10808680325119
H            5.49222901370629        1.51063027334191       -0.64563514873943
H            5.48994816268942        1.54221711350067        1.09885449121894
H            4.02378617053545       -0.49249715857094        1.14140980050148
H            4.03344905923544       -0.52418401509310       -0.62749487463376
H            2.37405846543884       -1.61095747724722        0.24830434122270
H            0.15201121114688       -2.53431058702796        0.28553206614731
H           -2.41556461712371        3.68796678559961        0.24789149127607
H           -0.15374271630143        4.58865032062756        0.21387293014190
H            1.78145831296043        3.07932478159088        0.20847344207569
H           -1.62684326574456       -3.27112092800119        0.31378661313191
H           -3.88522804870431       -4.17694983490097        0.35201923956268
H           -5.82389630605265       -2.68519921625831        0.35983979498075
H           -6.75809755800114       -0.42740302847521        0.35176431316768
H           -6.43953336298903        1.99766612080126        0.32052564192176
H           -4.19971876815148        2.95100792523889        0.28111511850568
