26
 xtb: 6.5.1 (fef0646)
N            1.46853583216609       -1.37589099186318       -1.17257888602002
C            0.83218019874692       -2.23604082309333       -0.12514563361101
C            0.21095260003058       -1.40913066610225        1.00209323191816
C           -0.83530542632788       -0.44456962699895        0.52410623280818
C           -0.48289620045650        0.77652610444734        0.13353290752621
C           -1.43309044545295        1.80917606164347       -0.38852243121820
C           -2.90385746774181        1.46789496746357       -0.09774843311301
C           -3.18496628005064       -0.01719208256777       -0.36150682986168
C           -2.26484126655776       -0.91603577901645        0.48130253523337
Cl           3.17751123944493        0.99311763852984        0.10906441572102
H            0.66480259614111       -0.93586284560152       -1.72815681247238
H            1.91376047985084       -2.02140327391971       -1.89875626735521
H            2.04720552373496       -0.73754993513861       -0.82525705569303
H            1.55727186344869       -2.95133948984748        0.28231951498325
H            0.01736110905873       -2.91846583508509       -0.54032276553523
H            1.02041040349643       -0.85111034865016        1.48476950691869
H           -0.21306537143677       -2.04547741622660        1.78347306167800
H            0.56471372855527        1.03726558479232        0.18519889391261
H           -1.29136180515937        1.90562485576381       -1.47568516765144
H           -1.17671800226417        2.78900956007001        0.02888096975034
H           -3.57521329383161        2.09953354657510       -0.69115154971813
H           -3.12835771402694        1.69736797662994        0.94959200190441
H           -3.02956236871972       -0.23403423067969       -1.42589750511963
H           -4.23966222898441       -0.25351216335310       -0.16622247335873
H           -2.28698734632619       -1.94883423401684        0.10318036302748
H           -2.63983880638129       -0.97423105565365        1.50812795197067
