 xtb: 6.5.1 (fef0646)
          02032320213D

 26 25  0     0  0            999 V2000
    1.3685   -1.4766   -1.2311 N   0  0  0  0  0  0  0  0  0  0  0  0
    0.7838   -2.2853   -0.1229 C   0  0  0  0  0  0  0  0  0  0  0  0
    0.2159   -1.4128    0.9953 C   0  0  0  0  0  0  0  0  0  0  0  0
   -0.8311   -0.4488    0.5180 C   0  0  0  0  0  0  0  0  0  0  0  0
   -0.4780    0.7719    0.1254 C   0  0  0  0  0  0  0  0  0  0  0  0
   -1.4300    1.8052   -0.3925 C   0  0  0  0  0  0  0  0  0  0  0  0
   -2.9005    1.4644   -0.0986 C   0  0  0  0  0  0  0  0  0  0  0  0
   -3.1835   -0.0205   -0.3611 C   0  0  0  0  0  0  0  0  0  0  0  0
   -2.2612   -0.9196    0.4793 C   0  0  0  0  0  0  0  0  0  0  0  0
    3.2710    1.1214    0.1697 Cl  0  0  0  0  0  0  0  0  0  0  0  0
    0.6358   -0.9424   -1.7192 H   0  0  0  0  0  0  0  0  0  0  0  0
    1.8527   -2.0587   -1.9301 H   0  0  0  0  0  0  0  0  0  0  0  0
    2.0454   -0.7876   -0.8599 H   0  0  0  0  0  0  0  0  0  0  0  0
    1.5466   -2.9640    0.2792 H   0  0  0  0  0  0  0  0  0  0  0  0
   -0.0035   -2.9340   -0.5241 H   0  0  0  0  0  0  0  0  0  0  0  0
    1.0281   -0.8511    1.4708 H   0  0  0  0  0  0  0  0  0  0  0  0
   -0.2074   -2.0377    1.7908 H   0  0  0  0  0  0  0  0  0  0  0  0
    0.5662    1.0362    0.1828 H   0  0  0  0  0  0  0  0  0  0  0  0
   -1.2912    1.9052   -1.4769 H   0  0  0  0  0  0  0  0  0  0  0  0
   -1.1752    2.7875    0.0280 H   0  0  0  0  0  0  0  0  0  0  0  0
   -3.5744    2.0986   -0.6911 H   0  0  0  0  0  0  0  0  0  0  0  0
   -3.1267    1.6965    0.9494 H   0  0  0  0  0  0  0  0  0  0  0  0
   -3.0305   -0.2352   -1.4260 H   0  0  0  0  0  0  0  0  0  0  0  0
   -4.2391   -0.2543   -0.1649 H   0  0  0  0  0  0  0  0  0  0  0  0
   -2.2868   -1.9500    0.1029 H   0  0  0  0  0  0  0  0  0  0  0  0
   -2.6380   -0.9749    1.5078 H   0  0  0  0  0  0  0  0  0  0  0  0
  1  2  1  0  0  0  0
  2  3  1  0  0  0  0
  3  4  1  0  0  0  0
  4  5  2  0  0  0  0
  5  6  1  0  0  0  0
  6  7  1  0  0  0  0
  7  8  1  0  0  0  0
  4  9  1  0  0  0  0
  8  9  1  0  0  0  0
  1 11  1  0  0  0  0
  1 12  1  0  0  0  0
  1 13  1  0  0  0  0
  2 14  1  0  0  0  0
  2 15  1  0  0  0  0
  3 16  1  0  0  0  0
  3 17  1  0  0  0  0
  5 18  1  0  0  0  0
  6 19  1  0  0  0  0
  6 20  1  0  0  0  0
  7 21  1  0  0  0  0
  7 22  1  0  0  0  0
  8 23  1  0  0  0  0
  8 24  1  0  0  0  0
  9 25  1  0  0  0  0
  9 26  1  0  0  0  0
M  END
