  21

 N          2.3066792443       -0.1994819323       -1.1849903201
 C          1.6591676772        0.4169820384        0.0213524983
 C          2.3012216704       -0.0735220916        1.3146751628
 C          0.1663580980        0.1901721213        0.0131148426
 C         -0.7174490192        1.2735216794       -0.0356254741
 C         -2.0932811809        1.0692818211       -0.0433902341
 C         -2.6059518395       -0.2215624572       -0.0025688641
 C         -1.7400734232       -1.3071934923        0.0467955245
 C         -0.3644237141       -1.1018168830        0.0551016040
 H          1.8708064328        0.1447427767       -2.0471974661
 H          2.2058830755       -1.2197603401       -1.1660947367
 H          3.3087766947        0.0173318616       -1.2192494323
 H          1.8242386425        1.5051578758       -0.0495547315
 H          2.1921954647       -1.1522267905        1.4157868941
 H          1.8363312100        0.3878353658        2.1864720490
 H          3.3670555971        0.1525055773        1.3408447306
 H         -0.3262499590        2.2756452718       -0.0672444302
 H         -2.7624719190        1.9130695847       -0.0810345806
 H         -3.6720554164       -0.3802015881       -0.0083738697
 H         -2.1347385890       -2.3093757794        0.0797188186
 H          0.3000189208       -1.9463578064        0.0988156593
          21
        -25.83004606
 N          2.3096669621        0.2048252463        1.1857995081
 C          1.6621705192       -0.4195382731       -0.0161617258
 C          2.3044831282        0.0626696789       -1.3121005825
 C          0.1692991314       -0.1941749252       -0.0096308183
 C         -0.7137975153       -1.2778462756        0.0356937153
 C         -2.0894568787       -1.0741963119        0.0433309514
 C         -2.6024494132        0.2163952331        0.0051030220
 C         -1.7372855698        1.3024841526       -0.0416265306
 C         -0.3617623315        1.0975508065       -0.0496125168
 H          2.2163427044        1.2254129979        1.1561176318
 H          3.3099910996       -0.0188262502        1.2266396373
 H          1.8677646315       -0.1274438011        2.0495902718
 H          1.8280082701       -1.5068679879        0.0618280066
 H          3.3718439374       -0.1559145814       -1.3328955119
 H          2.1882095782        1.1395423766       -1.4240624585
 H          1.8451454773       -0.4099706727       -2.1806321686
 H         -0.3223003145       -2.2800367676        0.0651336232
 H         -2.7583412101       -1.9183760417        0.0787092561
 H         -3.6686043027        0.3746757700        0.0111427567
 H         -2.1322375886        2.3046864047       -0.0720317427
 H          0.3024282450        1.9427171407       -0.0902676456
