  21

 N         -2.2566137711        0.5482865706        1.1661177841
 C         -1.6715682763        0.3408812944       -0.1972270326
 C         -2.3701540717       -0.7969964886       -0.9361207111
 C         -0.1748631028        0.1467954096       -0.1172379523
 C          0.6961958123        1.1342857825       -0.5950821811
 C          2.0759444162        0.9717601456       -0.5059119410
 C          2.6065981993       -0.1798692886        0.0637085096
 C          1.7552429473       -1.1662373689        0.5480390251
 C          0.3752647205       -1.0018635414        0.4620304585
 H         -1.7998677750        1.3337967555        1.6515115343
 H         -2.1335374568       -0.2906713501        1.7494843897
 H         -3.2657819218        0.7501237595        1.1185254303
 H         -1.8480752529        1.2700142206       -0.7661804331
 H         -2.2679721946       -1.7357633589       -0.3921575912
 H         -1.9488536439       -0.9443444383       -1.9319391718
 H         -3.4379600363       -0.6023840242       -1.0485866916
 H          0.2920938126        2.0317236657       -1.0339884691
 H          2.7349902982        1.7413080006       -0.8777721878
 H          3.6765535805       -0.3067899606        0.1316145167
 H          2.1655143323       -2.0604239810        0.9916676153
 H         -0.2769909878       -1.7668170879        0.8479261176
          21
        -25.72555165
 N         -2.3040974040        0.1784475661       -1.1924767767
 C         -1.6641504481       -0.4176432281        0.0243463203
 C         -2.3196733278        0.0908550338        1.3045356886
 C         -0.1698229567       -0.1928667945        0.0189639938
 C          0.3644395671        1.1000546796        0.0394196613
 C          1.7419446113        1.3027686447        0.0274124176
 C          2.6065516803        0.2147823372       -0.0074618671
 C          2.0915386291       -1.0761315872       -0.0307362196
 C          0.7142754699       -1.2786101120       -0.0179933514
 H         -1.8663414306       -0.1769821762       -2.0545332978
 H         -2.2087708849        1.2031330602       -1.1949557908
 H         -3.3099271579       -0.0398265506       -1.2361363045
 H         -1.8291212854       -1.5074765093       -0.0313223444
 H         -2.2089067279        1.1713503047        1.3946607564
 H         -1.8695545161       -0.3612017127        2.1899832668
 H         -3.3881277002       -0.1300230580        1.3205450727
 H         -0.2988352034        1.9481887036        0.0647379904
 H          2.1399889990        2.3056746317        0.0447745863
 H          3.6745737481        0.3718975422       -0.0171569217
 H          2.7608635878       -1.9223332897       -0.0593804799
 H          0.3225495548       -2.2821295944       -0.0383597082
