  21

 N          3.2039215219       -0.8604513849        1.0939666885
 C          2.4792740428       -0.0920485566        0.0358211331
 C          0.9892982009       -0.3951357071        0.1374174029
 C          3.0310043161       -0.4435295513       -1.3264827997
 C          3.5681583774        0.5492028168       -2.1353053622
 C          4.0573621114        0.2415813689       -3.3931892911
 C          4.0175063337       -1.0639742464       -3.8528326290
 C          3.4840283920       -2.0598394783       -3.0512102778
 C          2.9927374531       -1.7523706130       -1.7952894015
 H          4.2070545655       -0.6430678871        1.0813996535
 H          3.0882165332       -1.8684283935        0.9338893415
 H          2.8230942110       -0.6330528280        2.0203990753
 H          2.6453381141        0.9723144043        0.2181869822
 H          0.7903455892       -1.4523160981       -0.0103490116
 H          0.4520837961        0.1510065994       -0.6319570765
 H          0.5943675044       -0.0879428215        1.1014580679
 H          3.6012247151        1.5712979059       -1.7893440078
 H          4.4702428058        1.0203904350       -4.0165334967
 H          4.3978599427       -1.3040524190       -4.8343934789
 H          3.4488003751       -3.0771416289       -3.4108105134
 H          2.5665610983       -2.5457119168       -1.2005909990
