  21

 N          2.8919700000        0.3085500000        1.3479600000
 C          2.3241600000        0.0303900000        0.0009400000
 C          0.8082300000        0.1931500000        0.0818100000
 C          2.8085000000       -1.3188700000       -0.4749100000
 C          4.0236000000       -1.4062900000       -1.1772000000
 C          4.5288700000       -2.6449300000       -1.5782900000
 C          3.8312300000       -3.8119800000       -1.2806200000
 C          2.6282800000       -3.7440200000       -0.5848700000
 C          2.1210400000       -2.5078400000       -0.1799200000
 H          3.9182300000        0.2908300000        1.3093400000
 H          2.6087100000       -0.4190300000        2.0156500000
 H          2.5999700000        1.2217200000        1.7141400000
 H          2.7164000000        0.8158500000       -0.6565800000
 H          0.3578500000       -0.4684600000        0.8298200000
 H          0.3415400000       -0.0239400000       -0.8852600000
 H          0.5426900000        1.2200100000        0.3577500000
 H          4.5946200000       -0.5150100000       -1.4362100000
 H          5.4655000000       -2.7045500000       -2.1292600000
 H          4.2223600000       -4.7771700000       -1.5971100000
 H          2.0822400000       -4.6589700000       -0.3621500000
 H          1.1759700000       -2.5093100000        0.3590100000
