 xtb: 6.5.1 (fef0646)
          01232319433D

 21 21  0     0  0            999 V2000
    3.1624   -2.4696   -0.2551 N   0  0  0  0  0  0  0  0  0  0  0  0
    2.5833   -1.0943   -0.2038 C   0  0  0  0  0  0  0  0  0  0  0  0
    2.9959   -0.4580    1.1256 C   0  0  0  0  0  0  0  0  0  0  0  0
    4.4996   -0.5001    1.2308 C   0  0  0  0  0  0  0  0  0  0  0  0
    5.2761    0.5224    0.6999 C   0  0  0  0  0  0  0  0  0  0  0  0
    6.6570    0.4359    0.7225 C   0  0  0  0  0  0  0  0  0  0  0  0
    7.2788   -0.6795    1.2626 C   0  0  0  0  0  0  0  0  0  0  0  0
    6.5166   -1.7032    1.7967 C   0  0  0  0  0  0  0  0  0  0  0  0
    5.1308   -1.6210    1.7742 C   0  0  0  0  0  0  0  0  0  0  0  0
    3.2489   -2.8281   -1.2108 H   0  0  0  0  0  0  0  0  0  0  0  0
    2.5975   -3.1252    0.2965 H   0  0  0  0  0  0  0  0  0  0  0  0
    4.1098   -2.3859    0.2055 H   0  0  0  0  0  0  0  0  0  0  0  0
    1.5003   -1.1422   -0.3114 H   0  0  0  0  0  0  0  0  0  0  0  0
    2.9985   -0.5167   -1.0308 H   0  0  0  0  0  0  0  0  0  0  0  0
    2.5352   -0.9923    1.9578 H   0  0  0  0  0  0  0  0  0  0  0  0
    2.6394    0.5703    1.1488 H   0  0  0  0  0  0  0  0  0  0  0  0
    4.7968    1.3959    0.2844 H   0  0  0  0  0  0  0  0  0  0  0  0
    7.2500    1.2427    0.3219 H   0  0  0  0  0  0  0  0  0  0  0  0
    8.3548   -0.7421    1.2822 H   0  0  0  0  0  0  0  0  0  0  0  0
    6.9942   -2.5629    2.2402 H   0  0  0  0  0  0  0  0  0  0  0  0
    4.5513   -2.3876    2.2750 H   0  0  0  0  0  0  0  0  0  0  0  0
  1  2  1  0  0  0  0
  2  3  1  0  0  0  0
  3  4  1  0  0  0  0
  4  5  4  0  0  0  0
  5  6  4  0  0  0  0
  6  7  4  0  0  0  0
  7  8  4  0  0  0  0
  4  9  4  0  0  0  0
  8  9  4  0  0  0  0
  1 10  1  0  0  0  0
  1 11  1  0  0  0  0
  1 12  1  0  0  0  0
  2 13  1  0  0  0  0
  2 14  1  0  0  0  0
  3 15  1  0  0  0  0
  3 16  1  0  0  0  0
  5 17  1  0  0  0  0
  6 18  1  0  0  0  0
  7 19  1  0  0  0  0
  8 20  1  0  0  0  0
  9 21  1  0  0  0  0
M  CHG  1   1   1
M  END
