26
 xtb: 6.5.1 (fef0646)
N           -4.58587634023982       -0.70578603834178        0.83198060733474
C           -4.63442134447008        0.49885233416655       -0.04629787470896
C           -3.48316750520535        1.46409207649051        0.23183170990969
C           -2.15806450692700        0.91333363955921       -0.16464030124458
C           -1.55133883292528        1.11391078465474       -1.36281406919482
C           -0.29149827074044        0.47030158658740       -1.48366083278175
C            0.07709470019254       -0.23211777247843       -0.37320374802290
C            1.30380126480874       -0.97607444168369       -0.21787027405352
C            1.65656573751304       -1.69890479219860        0.88627309588515
C            2.92413518283397       -2.33028908277613        0.77568919802416
C            3.54094165446182       -2.09056916322036       -0.40457870217590
S            2.58194989134730       -1.06900834370121       -1.41123570438365
S           -1.16020653797556       -0.09880664514108        0.84411662962317
Cl           2.11883464995548        2.41707158436750        0.88807852212141
H           -5.21069145393159       -1.44857493461427        0.53358801558359
H           -4.73751244473956       -0.47036554850862        1.80041454664095
H           -3.59433869176245       -1.09562743529846        0.78111139590422
H           -5.59777588867766        0.98272242994072        0.08135456144459
H           -4.58426809188164        0.19301692606425       -1.10477330196433
H           -3.46675251341159        1.71557228682441        1.30012925881580
H           -3.65039563528670        2.42201931410218       -0.28809487572121
H           -1.98447139332281        1.72207681650646       -2.14329802080109
H            0.32983195618640        0.54148873390669       -2.35918049249501
H            1.04866581724494       -1.73622829102226        1.77720819006339
H            3.36993925923158       -2.90467250294919        1.57148541293638
H            4.49657255461945       -2.47622508838866       -0.69956766254013
