 xtb: 6.5.1 (fef0646)
          01242317093D

 25 24  0     0  0            999 V2000
   -2.9423    0.5438    0.8864 N   0  0  0  0  0  0  0  0  0  0  0  0
   -1.5240    0.7628    1.2935 C   0  0  0  0  0  0  0  0  0  0  0  0
   -0.7951    1.7119    0.3506 C   0  0  0  0  0  0  0  0  0  0  0  0
    0.6849    1.8949    0.7056 C   0  0  0  0  0  0  0  0  0  0  0  0
    1.4769    0.6242    0.5896 C   0  0  0  0  0  0  0  0  0  0  0  0
    1.8481    0.1399   -0.6564 C   0  0  0  0  0  0  0  0  0  0  0  0
    2.5460   -1.0459   -0.7728 C   0  0  0  0  0  0  0  0  0  0  0  0
    2.8785   -1.7655    0.3572 C   0  0  0  0  0  0  0  0  0  0  0  0
    2.5106   -1.2979    1.6026 C   0  0  0  0  0  0  0  0  0  0  0  0
    1.8126   -0.1119    1.7173 C   0  0  0  0  0  0  0  0  0  0  0  0
   -2.6982   -0.7052   -2.3800 Cl  0  0  0  0  0  0  0  0  0  0  0  0
   -3.4298   -0.1128    1.5120 H   0  0  0  0  0  0  0  0  0  0  0  0
   -2.9806    0.1589   -0.0699 H   0  0  0  0  0  0  0  0  0  0  0  0
   -3.4674    1.4318    0.8829 H   0  0  0  0  0  0  0  0  0  0  0  0
   -0.9995   -0.1995    1.3256 H   0  0  0  0  0  0  0  0  0  0  0  0
   -1.4831    1.1506    2.3181 H   0  0  0  0  0  0  0  0  0  0  0  0
   -1.3091    2.6807    0.3433 H   0  0  0  0  0  0  0  0  0  0  0  0
   -0.8791    1.3341   -0.6747 H   0  0  0  0  0  0  0  0  0  0  0  0
    0.7735    2.2854    1.7254 H   0  0  0  0  0  0  0  0  0  0  0  0
    1.1415    2.6561    0.0618 H   0  0  0  0  0  0  0  0  0  0  0  0
    1.5824    0.7002   -1.5374 H   0  0  0  0  0  0  0  0  0  0  0  0
    2.8297   -1.4105   -1.7471 H   0  0  0  0  0  0  0  0  0  0  0  0
    3.4232   -2.6917    0.2671 H   0  0  0  0  0  0  0  0  0  0  0  0
    2.7667   -1.8596    2.4866 H   0  0  0  0  0  0  0  0  0  0  0  0
    1.5190    0.2500    2.6886 H   0  0  0  0  0  0  0  0  0  0  0  0
  1  2  1  0  0  0  0
  2  3  1  0  0  0  0
  3  4  1  0  0  0  0
  4  5  1  0  0  0  0
  5  6  4  0  0  0  0
  6  7  4  0  0  0  0
  7  8  4  0  0  0  0
  8  9  4  0  0  0  0
  5 10  4  0  0  0  0
  9 10  4  0  0  0  0
  1 12  1  0  0  0  0
  1 13  1  0  0  0  0
  1 14  1  0  0  0  0
  2 15  1  0  0  0  0
  2 16  1  0  0  0  0
  3 17  1  0  0  0  0
  3 18  1  0  0  0  0
  4 19  1  0  0  0  0
  4 20  1  0  0  0  0
  6 21  1  0  0  0  0
  7 22  1  0  0  0  0
  8 23  1  0  0  0  0
  9 24  1  0  0  0  0
 10 25  1  0  0  0  0
M  END
