24
0.581
N           -1.44286  -0.12507  -0.63090
C           -0.83659  -0.86787   0.51254
C            0.63287  -1.21017   0.28375
C            1.54087   0.01832   0.23684
C            3.01570  -0.33731   0.04631
C            3.92577   0.89060  -0.00814
C            5.39154   0.52925  -0.19850
Cl          -4.86937   0.43347  -0.03783
H           -0.98562   0.78619  -0.77158
H           -2.44950   0.05348  -0.48104
H           -1.34658  -0.65852  -1.50915
H           -1.41328  -1.78463   0.69052
H           -0.93885  -0.27713   1.43050
H            0.73508  -1.77482  -0.65035
H            0.98852  -1.88903   1.06930
H            1.41885   0.60194   1.15723
H            1.22173   0.68830  -0.56958
H            3.13681  -0.92626  -0.87099
H            3.34217  -1.00214   0.85517
H            3.79733   1.47819   0.91031
H            3.59183   1.55384  -0.81682
H            5.54415  -0.02675  -1.12545
H            5.75227  -0.10069   0.61674
H            6.03145   1.41371  -0.23738
