41
1.192
N           -3.76880  -2.19136   0.15914
C           -4.59508  -1.03872  -0.29877
C           -4.54024   0.14754   0.65841
C           -3.14887   0.76812   0.80819
C           -2.60768   1.38477  -0.48301
C           -1.29098   2.14587  -0.29783
C           -0.11011   1.28016   0.15299
C            0.31000   0.22769  -0.87399
C            1.49371  -0.63613  -0.42677
C            2.81264   0.12937  -0.30522
C            3.99281  -0.76851   0.07122
C            5.31541  -0.00959   0.19459
C            6.48403  -0.90925   0.56634
H           -4.05580  -2.49828   1.10080
H           -2.76776  -1.94890   0.20441
H           -3.86143  -3.00319  -0.47130
H           -5.63315  -1.37445  -0.42050
H           -4.27164  -0.73246  -1.29997
H           -4.90660  -0.17646   1.64035
H           -5.24395   0.92236   0.32961
H           -2.44841   0.01392   1.18182
H           -3.17261   1.54192   1.58582
H           -3.36756   2.06004  -0.89615
H           -2.48147   0.60630  -1.24255
H           -1.45118   2.95470   0.42598
H           -1.02199   2.64995  -1.23439
H           -0.34994   0.78863   1.10223
H            0.74800   1.92423   0.37909
H            0.55636   0.72160  -1.82098
H           -0.54772  -0.41593  -1.10179
H            1.63261  -1.46703  -1.12969
H            1.25818  -1.11052   0.53288
H            2.71509   0.92919   0.43695
H            3.02831   0.64033  -1.25067
H            4.09760  -1.56779  -0.67167
H            3.77613  -1.28313   1.01457
H            5.20606   0.79022   0.93785
H            5.52560   0.50750  -0.75019
H            6.31192  -1.40650   1.52253
H            7.41939  -0.35203   0.65079
H            6.63502  -1.69050  -0.18070
