22
 xtb: 6.5.1 (fef0646)
N           -3.39602890003382        0.80044941232100       -1.01100912879983
C           -3.24571001851242        1.92735888395736       -0.04513886154318
C           -2.37112600874754        1.54393093127635        1.14709519052916
C           -1.01101516850014        1.06087333450216        0.74110839357094
C           -0.76005045365146       -0.29611167415144        0.59343127301042
C            0.48515002364481       -0.74273107457587        0.19161739247478
C            1.49119108155556        0.16237956321976       -0.07698866498608
Br           3.20756238544960       -0.44898203258297       -0.63751519140754
C            1.25051571049347        1.51451003130526        0.05425913577858
C            0.00625728942842        1.96251247358224        0.46017454586840
Cl          -3.86867116285029       -2.03052984628014        0.73317347747293
H           -3.68889750776844       -0.02318514516379       -0.56432355232121
H           -2.48871359025901        0.63312335323052       -1.49952176628031
H           -4.07642593518036        1.05725795474367       -1.77894413697845
H           -4.22944528923245        2.27660152217143        0.28339719774465
H           -2.79942548997926        2.82133202721782       -0.56088023139768
H           -2.88021485555021        0.75983358477959        1.70091388996171
H           -2.26900252564300        2.38702232427561        1.83289876334126
H           -1.57646305436400       -0.99099320116531        0.71422487307124
H            0.65880203428338       -1.78988200333656        0.01316818434153
H            2.06060843095164        2.20751136743676       -0.10205397972121
H           -0.16678475135967        3.01627486896152        0.61141464284032
