 xtb: 6.5.1 (fef0646)
          01242314563D

 13 11  0     0  0            999 V2000
    0.9189   -0.2705   -0.0884 N   0  0  0  0  0  0  0  0  0  0  0  0
    2.3931   -0.2353   -0.0697 C   0  0  0  0  0  0  0  0  0  0  0  0
    2.8546    0.3149    1.2824 C   0  0  0  0  0  0  0  0  0  0  0  0
    4.2576    0.6113    1.2955 C   0  0  0  0  0  0  0  0  0  0  0  0
    5.3797    0.8420    1.3085 N   0  0  0  0  0  0  0  0  0  0  0  0
    0.1403    2.5376    0.8007 Cl  0  0  0  0  0  0  0  0  0  0  0  0
    0.5610   -0.5196   -1.0136 H   0  0  0  0  0  0  0  0  0  0  0  0
    0.5555    0.6883    0.1606 H   0  0  0  0  0  0  0  0  0  0  0  0
    0.5531   -0.9228    0.6104 H   0  0  0  0  0  0  0  0  0  0  0  0
    2.7387    0.4300   -0.8612 H   0  0  0  0  0  0  0  0  0  0  0  0
    2.7974   -1.2347   -0.2366 H   0  0  0  0  0  0  0  0  0  0  0  0
    2.6506   -0.3894    2.0913 H   0  0  0  0  0  0  0  0  0  0  0  0
    2.3108    1.2445    1.4825 H   0  0  0  0  0  0  0  0  0  0  0  0
  1  2  1  0  0  0  0
  2  3  1  0  0  0  0
  3  4  1  0  0  0  0
  4  5  3  0  0  0  0
  1  7  1  0  0  0  0
  1  8  1  0  0  0  0
  1  9  1  0  0  0  0
  2 10  1  0  0  0  0
  2 11  1  0  0  0  0
  3 12  1  0  0  0  0
  3 13  1  0  0  0  0
M  END
