41
1.382
N           -5.24262  -1.76761  -0.14937
C           -4.12933  -1.88004   0.83548
C           -2.93067  -1.00504   0.48161
C           -3.23509   0.49179   0.53822
C           -2.00656   1.37963   0.31449
C           -1.40632   1.25927  -1.08726
C           -0.27458   2.25505  -1.35956
C            0.95772   2.07936  -0.46705
C            1.68166   0.74710  -0.66625
C            2.95125   0.62350   0.17792
C            3.69002  -0.69897  -0.03284
C            4.96073  -0.82095   0.81043
C            5.69516  -2.13476   0.59289
H           -5.62860  -0.81225  -0.17845
H           -6.02118  -2.40476   0.07964
H           -4.92120  -2.00177  -1.10064
H           -3.82164  -2.93134   0.90422
H           -4.49973  -1.61642   1.83329
H           -2.57378  -1.27220  -0.51907
H           -2.09456  -1.22601   1.15655
H           -3.68936   0.72489   1.50925
H           -4.00180   0.74054  -0.20389
H           -1.24548   1.13855   1.06482
H           -2.26923   2.42881   0.49857
H           -2.20520   1.39871  -1.82636
H           -1.04680   0.23788  -1.25065
H           -0.66665   3.27372  -1.24793
H            0.03600   2.18207  -2.40924
H            0.67475   2.18774   0.58574
H            1.66622   2.89660  -0.65188
H            1.93343   0.62257  -1.72584
H            1.00752  -0.08421  -0.43221
H            2.69983   0.73940   1.23852
H            3.62451   1.45849  -0.04808
H            3.94198  -0.81338  -1.09356
H            3.01826  -1.53535   0.19248
H            4.70390  -0.70539   1.87098
H            5.62618   0.02231   0.58622
H            5.06274  -2.98790   0.84449
H            6.59802  -2.20521   1.20314
H            5.99523  -2.25212  -0.44986
