 xtb: 6.5.1 (fef0646)
          01242310113D

 41 40  0     0  0            999 V2000
   -5.2426   -1.7676   -0.1493 N   0  0  0  0  0  0  0  0  0  0  0  0
   -4.1293   -1.8800    0.8355 C   0  0  0  0  0  0  0  0  0  0  0  0
   -2.9307   -1.0050    0.4816 C   0  0  0  0  0  0  0  0  0  0  0  0
   -3.2351    0.4918    0.5382 C   0  0  0  0  0  0  0  0  0  0  0  0
   -2.0066    1.3796    0.3145 C   0  0  0  0  0  0  0  0  0  0  0  0
   -1.4063    1.2593   -1.0873 C   0  0  0  0  0  0  0  0  0  0  0  0
   -0.2746    2.2550   -1.3596 C   0  0  0  0  0  0  0  0  0  0  0  0
    0.9577    2.0794   -0.4671 C   0  0  0  0  0  0  0  0  0  0  0  0
    1.6817    0.7471   -0.6663 C   0  0  0  0  0  0  0  0  0  0  0  0
    2.9513    0.6235    0.1779 C   0  0  0  0  0  0  0  0  0  0  0  0
    3.6900   -0.6990   -0.0329 C   0  0  0  0  0  0  0  0  0  0  0  0
    4.9607   -0.8210    0.8104 C   0  0  0  0  0  0  0  0  0  0  0  0
    5.6952   -2.1348    0.5929 C   0  0  0  0  0  0  0  0  0  0  0  0
   -5.6286   -0.8122   -0.1784 H   0  0  0  0  0  0  0  0  0  0  0  0
   -6.0212   -2.4047    0.0797 H   0  0  0  0  0  0  0  0  0  0  0  0
   -4.9212   -2.0017   -1.1006 H   0  0  0  0  0  0  0  0  0  0  0  0
   -3.8217   -2.9313    0.9042 H   0  0  0  0  0  0  0  0  0  0  0  0
   -4.4997   -1.6164    1.8333 H   0  0  0  0  0  0  0  0  0  0  0  0
   -2.5738   -1.2722   -0.5191 H   0  0  0  0  0  0  0  0  0  0  0  0
   -2.0946   -1.2260    1.1566 H   0  0  0  0  0  0  0  0  0  0  0  0
   -3.6894    0.7249    1.5093 H   0  0  0  0  0  0  0  0  0  0  0  0
   -4.0018    0.7406   -0.2039 H   0  0  0  0  0  0  0  0  0  0  0  0
   -1.2455    1.1386    1.0648 H   0  0  0  0  0  0  0  0  0  0  0  0
   -2.2692    2.4288    0.4986 H   0  0  0  0  0  0  0  0  0  0  0  0
   -2.2052    1.3987   -1.8264 H   0  0  0  0  0  0  0  0  0  0  0  0
   -1.0468    0.2379   -1.2506 H   0  0  0  0  0  0  0  0  0  0  0  0
   -0.6666    3.2737   -1.2479 H   0  0  0  0  0  0  0  0  0  0  0  0
    0.0360    2.1821   -2.4092 H   0  0  0  0  0  0  0  0  0  0  0  0
    0.6748    2.1877    0.5857 H   0  0  0  0  0  0  0  0  0  0  0  0
    1.6662    2.8966   -0.6519 H   0  0  0  0  0  0  0  0  0  0  0  0
    1.9334    0.6226   -1.7258 H   0  0  0  0  0  0  0  0  0  0  0  0
    1.0075   -0.0842   -0.4322 H   0  0  0  0  0  0  0  0  0  0  0  0
    2.6998    0.7394    1.2385 H   0  0  0  0  0  0  0  0  0  0  0  0
    3.6245    1.4585   -0.0481 H   0  0  0  0  0  0  0  0  0  0  0  0
    3.9420   -0.8134   -1.0936 H   0  0  0  0  0  0  0  0  0  0  0  0
    3.0183   -1.5354    0.1925 H   0  0  0  0  0  0  0  0  0  0  0  0
    4.7039   -0.7054    1.8710 H   0  0  0  0  0  0  0  0  0  0  0  0
    5.6262    0.0223    0.5862 H   0  0  0  0  0  0  0  0  0  0  0  0
    5.0627   -2.9879    0.8445 H   0  0  0  0  0  0  0  0  0  0  0  0
    6.5980   -2.2052    1.2031 H   0  0  0  0  0  0  0  0  0  0  0  0
    5.9952   -2.2522   -0.4499 H   0  0  0  0  0  0  0  0  0  0  0  0
  1  2  1  0  0  0  0
  2  3  1  0  0  0  0
  3  4  1  0  0  0  0
  4  5  1  0  0  0  0
  5  6  1  0  0  0  0
  6  7  1  0  0  0  0
  7  8  1  0  0  0  0
  8  9  1  0  0  0  0
  9 10  1  0  0  0  0
 10 11  1  0  0  0  0
 11 12  1  0  0  0  0
 12 13  1  0  0  0  0
  1 14  1  0  0  0  0
  1 15  1  0  0  0  0
  1 16  1  0  0  0  0
  2 17  1  0  0  0  0
  2 18  1  0  0  0  0
  3 19  1  0  0  0  0
  3 20  1  0  0  0  0
  4 21  1  0  0  0  0
  4 22  1  0  0  0  0
  5 23  1  0  0  0  0
  5 24  1  0  0  0  0
  6 25  1  0  0  0  0
  6 26  1  0  0  0  0
  7 27  1  0  0  0  0
  7 28  1  0  0  0  0
  8 29  1  0  0  0  0
  8 30  1  0  0  0  0
  9 31  1  0  0  0  0
  9 32  1  0  0  0  0
 10 33  1  0  0  0  0
 10 34  1  0  0  0  0
 11 35  1  0  0  0  0
 11 36  1  0  0  0  0
 12 37  1  0  0  0  0
 12 38  1  0  0  0  0
 13 39  1  0  0  0  0
 13 40  1  0  0  0  0
 13 41  1  0  0  0  0
M  CHG  1   1   1
M  END
