 xtb: 6.5.1 (fef0646)
          01232314143D

 21 19  0     0  0            999 V2000
    1.1145   -0.3453    0.1060 N   0  0  0  0  0  0  0  0  0  0  0  0
    2.5746   -0.2844    0.0434 C   0  0  0  0  0  0  0  0  0  0  0  0
    3.0655    1.0733    0.5358 C   0  0  0  0  0  0  0  0  0  0  0  0
    4.5831    1.1971    0.4290 C   0  0  0  0  0  0  0  0  0  0  0  0
    5.0812    2.5581    0.9098 C   0  0  0  0  0  0  0  0  0  0  0  0
    6.5992    2.6642    0.8273 C   0  0  0  0  0  0  0  0  0  0  0  0
   -0.0685    1.7590   -1.5586 Cl  0  0  0  0  0  0  0  0  0  0  0  0
    0.7685   -1.2365   -0.2315 H   0  0  0  0  0  0  0  0  0  0  0  0
    0.4973    0.7773   -0.7845 H   0  0  0  0  0  0  0  0  0  0  0  0
    0.7895   -0.2067    1.0575 H   0  0  0  0  0  0  0  0  0  0  0  0
    2.8629   -0.4216   -1.0014 H   0  0  0  0  0  0  0  0  0  0  0  0
    3.0456   -1.0831    0.6347 H   0  0  0  0  0  0  0  0  0  0  0  0
    2.7619    1.2112    1.5765 H   0  0  0  0  0  0  0  0  0  0  0  0
    2.5880    1.8535   -0.0577 H   0  0  0  0  0  0  0  0  0  0  0  0
    4.8833    1.0515   -0.6110 H   0  0  0  0  0  0  0  0  0  0  0  0
    5.0556    0.4102    1.0230 H   0  0  0  0  0  0  0  0  0  0  0  0
    4.7620    2.7159    1.9428 H   0  0  0  0  0  0  0  0  0  0  0  0
    4.6270    3.3415    0.2998 H   0  0  0  0  0  0  0  0  0  0  0  0
    7.0697    1.9060    1.4504 H   0  0  0  0  0  0  0  0  0  0  0  0
    6.9339    3.6422    1.1656 H   0  0  0  0  0  0  0  0  0  0  0  0
    6.9358    2.5210   -0.1975 H   0  0  0  0  0  0  0  0  0  0  0  0
  1  2  1  0  0  0  0
  2  3  1  0  0  0  0
  3  4  1  0  0  0  0
  4  5  1  0  0  0  0
  5  6  1  0  0  0  0
  1  8  1  0  0  0  0
  7  9  1  0  0  0  0
  1 10  1  0  0  0  0
  2 11  1  0  0  0  0
  2 12  1  0  0  0  0
  3 13  1  0  0  0  0
  3 14  1  0  0  0  0
  4 15  1  0  0  0  0
  4 16  1  0  0  0  0
  5 17  1  0  0  0  0
  5 18  1  0  0  0  0
  6 19  1  0  0  0  0
  6 20  1  0  0  0  0
  6 21  1  0  0  0  0
M  END
