34
 xtb: 6.5.1 (fef0646)
N           -4.19092957460556        0.88211536550697       -0.29990843310570
C           -3.86752799583143        1.09106464728871        1.14068826519106
C           -2.62292904808099        0.31212907829301        1.56039219393826
C           -1.42624491839828        0.63461992382174        0.71493183369035
C           -0.60858481834477        1.71298835574631        1.02315547451569
C            0.46887138569895        2.02991005108428        0.22362175796746
C           -1.14864827375424       -0.10866702712494       -0.42456381659662
C           -0.07351380693896        0.20444060469858       -1.22682967166103
C            0.75021944434151        1.27868669349153       -0.91202833945597
N            1.88160678224622        1.55158877917076       -1.68819928708643
N            2.98404745910214        1.03524966295947       -1.45094426876233
C            3.17824085253953        0.14883303009853       -0.38555988454964
C            3.45994771824148        0.62608249809952        0.89224244567855
C            3.58955343086922       -0.24692711962917        1.95125139802659
C            3.43107227215364       -1.60600611861141        1.75100532012103
C            3.14616669296086       -2.09096884662313        0.48779030116242
C            3.02307867949675       -1.22141607583322       -0.57506514548806
Cl          -3.78797561321015       -2.39164350248107       -1.03090928876820
H           -5.09649117350909        1.34474612282884       -0.55576098182526
H           -4.22654211747547       -0.09120009051908       -0.53642765025608
H           -3.46380498539165        1.34061403898434       -0.89155591586232
H           -4.72579840653103        0.80468582115637        1.76034136592540
H           -3.71062399759724        2.16870113248382        1.34986023389112
H           -2.83497266445416       -0.76298493485321        1.47772574177129
H           -2.38545535779117        0.48476697488566        2.61070907713445
H           -0.83728593531040        2.30908039971399        1.89111726287072
H            1.10228517056862        2.86523075983880        0.46500981928104
H           -1.78746729832272       -0.94004978626095       -0.68069167274445
H            0.15820244175760       -0.38548043788971       -2.09823518604263
H            3.63407112992977        1.68074946537038        1.02733555393849
H            3.86965658564923        0.12082604812856        2.92634299005957
H            3.52636416306743       -2.29107736925959        2.57892598728415
H            2.95570119475627       -3.14305660895991        0.34240954939355
H            2.72636615285666       -1.57274175531489       -1.54892206938428
