21
 xtb: 6.5.1 (fef0646)
N           -1.41667384469658       -1.71718595883626       -0.32186358548382
C           -0.14462414610645       -2.07926178072409        0.38257423180493
C            1.06557206455871       -1.31211656188107       -0.14730714117773
C            0.95661392559350        0.19571424543805        0.07617868364110
C            2.14711554381251        0.99254705126630       -0.46582059059060
C            3.44607014886273        0.71825034383941        0.27792257853803
Cl          -2.35445897594102        1.32581625693959        0.09299258567052
H           -1.67636079533248       -0.83257458015628       -0.20572341295279
H           -2.15656892032946       -2.41663375743353       -0.01686788620120
H           -1.26958003950633       -1.97153931189661       -1.35113331707050
H            0.09555170803624       -3.19407083176234        0.32029517421468
H           -0.24244644928147       -1.91131240549855        1.45454456288758
H            1.19590759228691       -1.52086005952453       -1.22052479597566
H            2.00457836460231       -1.68719088573453        0.31351752208448
H            0.83076245710831        0.37772690701638        1.15245128057271
H            0.01894951755557        0.53417225129481       -0.38031232624878
H            1.89813807004576        2.06311726522781       -0.41080372285211
H            2.25499924540258        0.77735226671975       -1.53129305449355
H            4.25260362954287        1.34507922104153       -0.09730068910627
H            3.75152095361957       -0.31749287186490        0.16913170020571
H            3.33430076841608        0.92038977934038        1.34336065839528
