 xtb: 6.5.1 (fef0646)
          01242317103D

 21 19  0     0  0            999 V2000
   -1.3690   -1.8582   -0.3464 N   0  0  0  0  0  0  0  0  0  0  0  0
   -0.0987   -2.1341    0.3868 C   0  0  0  0  0  0  0  0  0  0  0  0
    1.0834   -1.3299   -0.1490 C   0  0  0  0  0  0  0  0  0  0  0  0
    0.9462    0.1750    0.0818 C   0  0  0  0  0  0  0  0  0  0  0  0
    2.1255    0.9897   -0.4597 C   0  0  0  0  0  0  0  0  0  0  0  0
    3.4323    0.7231    0.2736 C   0  0  0  0  0  0  0  0  0  0  0  0
   -2.4041    1.4956    0.1051 Cl  0  0  0  0  0  0  0  0  0  0  0  0
   -1.6640   -0.8739   -0.2281 H   0  0  0  0  0  0  0  0  0  0  0  0
   -2.1418   -2.4528   -0.0153 H   0  0  0  0  0  0  0  0  0  0  0  0
   -1.2535   -2.0249   -1.3550 H   0  0  0  0  0  0  0  0  0  0  0  0
    0.1218   -3.2077    0.3301 H   0  0  0  0  0  0  0  0  0  0  0  0
   -0.2362   -1.9210    1.4535 H   0  0  0  0  0  0  0  0  0  0  0  0
    1.2005   -1.5241   -1.2214 H   0  0  0  0  0  0  0  0  0  0  0  0
    2.0134   -1.6861    0.3106 H   0  0  0  0  0  0  0  0  0  0  0  0
    0.8280    0.3700    1.1544 H   0  0  0  0  0  0  0  0  0  0  0  0
    0.0141    0.5257   -0.3772 H   0  0  0  0  0  0  0  0  0  0  0  0
    1.8883    2.0612   -0.4059 H   0  0  0  0  0  0  0  0  0  0  0  0
    2.2476    0.7797   -1.5303 H   0  0  0  0  0  0  0  0  0  0  0  0
    4.2454    1.3512   -0.0975 H   0  0  0  0  0  0  0  0  0  0  0  0
    3.7519   -0.3143    0.1635 H   0  0  0  0  0  0  0  0  0  0  0  0
    3.3314    0.9175    1.3430 H   0  0  0  0  0  0  0  0  0  0  0  0
  1  2  1  0  0  0  0
  2  3  1  0  0  0  0
  3  4  1  0  0  0  0
  4  5  1  0  0  0  0
  5  6  1  0  0  0  0
  1  8  1  0  0  0  0
  1  9  1  0  0  0  0
  1 10  1  0  0  0  0
  2 11  1  0  0  0  0
  2 12  1  0  0  0  0
  3 13  1  0  0  0  0
  3 14  1  0  0  0  0
  4 15  1  0  0  0  0
  4 16  1  0  0  0  0
  5 17  1  0  0  0  0
  5 18  1  0  0  0  0
  6 19  1  0  0  0  0
  6 20  1  0  0  0  0
  6 21  1  0  0  0  0
M  END
