18
 xtb: 6.5.1 (fef0646)
N           -0.22488173362528       -1.08924839460758       -0.90339075052069
C            0.71085150653345       -1.42694595702815        0.21733572958952
C            1.19205999420411       -0.18267680122545        0.97707410272157
C            2.54389066234201        0.36584037617019        0.50564326727015
C            2.55333092083284        0.83039187683330       -0.94255306091258
Cl          -2.67701717284151        0.62663231283161        0.14113961483139
H           -0.97386207997864       -0.61970959207131       -0.63640182977550
H           -0.46081887746367       -2.00612982232376       -1.41775067801657
H            0.34510327851707       -0.56886399259609       -1.64274306558606
H            1.62161214016728       -2.02919289710957       -0.10276439551299
H            0.20209063620687       -2.12122351537660        0.90250538137688
H            1.25142257059208       -0.40148134800359        2.04899379220376
H            0.42675193493920        0.57726052048428        0.86916253545075
H            3.32646213659173       -0.38933237768039        0.65736589636116
H            2.83744405803033        1.20501825102088        1.15632469312941
H            2.42285905452207       -0.00318624385442       -1.63214830005808
H            3.50239408423786        1.31415498068414       -1.21135073012792
H            1.76005151568133        1.55052963551903       -1.13623782386381
