18
 xtb: 6.5.1 (fef0646)
N            0.30625613062843       -2.00461530794940        0.15368818706712
C           -1.03136904753413       -1.71725796371425        0.73847608510456
C           -1.93790081593323       -0.94129167924532       -0.21399705000763
C           -1.42713355360362        0.45801220770442       -0.57196592061154
C           -1.33094978081769        1.39184505565751        0.62464805006443
Cl           2.19577845633897        1.30074615345482       -0.33205502134282
H            0.29537362943449       -2.39195841157545       -0.76974947324023
H            0.96503170426967       -2.48357409162699        0.75453015721021
H            0.84735034781142       -1.01377557854048       -0.01843707613682
H           -0.89250696582253       -1.15113569662209        1.67750766005840
H           -1.42732542389541       -2.66226888139748        0.99381590608818
H           -2.92393061926691       -0.86670484232202        0.23697943341827
H           -2.06013296093897       -1.52975986010539       -1.12630261566837
H           -2.12318582271382        0.90807729027232       -1.32207576301309
H           -0.47457797693338        0.40591332373593       -1.09124278334319
H           -2.28825852636184        1.48082443995271        1.14626966555558
H           -1.03666609656003        2.41181777749618        0.32598467585929
H           -0.59574731789681        1.04619275755561        1.34073410941636
