22

N          1.69534       -0.25869       -1.24753
C          2.52431       -0.09057       -0.03924
C          3.03511        1.30303        0.06615
C          4.33960        1.63099        0.07064
C          4.84962        3.00443        0.22333
C          4.16888        3.98497        0.95947
C          4.70723        5.26482        1.11469
C          5.94038        5.57675        0.54937
C          6.63773        4.60842       -0.16818
C          6.09762        3.32844       -0.32691
H          1.34665       -1.22112       -1.32847
H          2.24029       -0.04516       -2.09160
H          0.88391        0.37065       -1.23419
H          3.32842       -0.82993       -0.10660
H          1.89113       -0.33383        0.81891
H          2.28622        2.08507        0.17520
H          5.10816        0.86571       -0.03323
H          3.21996        3.77177        1.44325
H          4.16945        6.01659        1.68810
H          6.36315        6.57042        0.67824
H          7.60777        4.84877       -0.59800
H          6.67093        2.59241       -0.88661
