24

N          0.99541        0.14637        0.10501
C          2.46974        0.02785        0.09499
C          2.98250       -0.06618       -1.30969
C          3.12823       -1.31314       -1.92983
C          3.54615       -1.39543       -3.25969
C          3.26070        1.09742       -2.04598
C          3.67505        1.02745       -3.38695
C          3.81503       -0.23691       -4.00225
C          4.21837       -0.31029       -5.34456
C          4.47859        0.85024       -6.07376
C          4.34655        2.09609       -5.46867
C          3.94988        2.18570       -4.13331
H          0.62339        0.20938        1.05901
H          0.56631       -0.66435       -0.35782
H          0.69690        0.98016       -0.41571
H          2.72515       -0.86216        0.67934
H          2.86880        0.90601        0.61325
H          2.93059       -2.24046       -1.39446
H          3.66363       -2.37630       -3.71980
H          3.16353        2.07789       -1.58040
H          4.33305       -1.27347       -5.83768
H          4.78770        0.78039       -7.11442
H          4.55498        2.99932       -6.03796
H          3.85996        3.17291       -3.68520
