 xtb: 6.5.1 (fef0646)
          01232319533D

 18 16  0     0  0            999 V2000
    0.9783    0.3341   -0.2412 N   0  0  0  0  0  0  0  0  0  0  0  0
    2.4340    0.2467   -0.2480 C   0  0  0  0  0  0  0  0  0  0  0  0
    3.1118    1.2996   -1.1279 C   0  0  0  0  0  0  0  0  0  0  0  0
    4.6312    1.1658   -1.1008 C   0  0  0  0  0  0  0  0  0  0  0  0
    5.2949    2.1916   -2.0042 C   0  0  0  0  0  0  0  0  0  0  0  0
    6.6400    2.1473   -2.0065 O   0  0  0  0  0  0  0  0  0  0  0  0
    4.7045    2.9836   -2.6753 O   0  0  0  0  0  0  0  0  0  0  0  0
   -0.0246   -1.8249    1.4963 Cl  0  0  0  0  0  0  0  0  0  0  0  0
    0.4143   -0.8219    0.6925 H   0  0  0  0  0  0  0  0  0  0  0  0
    0.6071    0.2155   -1.1781 H   0  0  0  0  0  0  0  0  0  0  0  0
    0.6732    1.2361    0.1097 H   0  0  0  0  0  0  0  0  0  0  0  0
    2.6993   -0.7556   -0.5934 H   0  0  0  0  0  0  0  0  0  0  0  0
    2.7730    0.3488    0.7859 H   0  0  0  0  0  0  0  0  0  0  0  0
    2.8378    2.3007   -0.7876 H   0  0  0  0  0  0  0  0  0  0  0  0
    2.7671    1.1997   -2.1594 H   0  0  0  0  0  0  0  0  0  0  0  0
    4.9254    0.1666   -1.4365 H   0  0  0  0  0  0  0  0  0  0  0  0
    5.0034    1.3023   -0.0812 H   0  0  0  0  0  0  0  0  0  0  0  0
    6.9981    1.4650   -1.4240 H   0  0  0  0  0  0  0  0  0  0  0  0
  1  2  1  0  0  0  0
  2  3  1  0  0  0  0
  3  4  1  0  0  0  0
  4  5  1  0  0  0  0
  5  6  1  0  0  0  0
  5  7  2  0  0  0  0
  8  9  1  0  0  0  0
  1 10  1  0  0  0  0
  1 11  1  0  0  0  0
  2 12  1  0  0  0  0
  2 13  1  0  0  0  0
  3 14  1  0  0  0  0
  3 15  1  0  0  0  0
  4 16  1  0  0  0  0
  4 17  1  0  0  0  0
  6 18  1  0  0  0  0
M  END
