25
 xtb: 6.5.1 (fef0646)
N           -2.99774806280639        1.72139557923038       -0.42870268654132
C           -2.06202015510412        2.00865989397266        0.69734352602665
C           -0.68103222911388        1.49976689190580        0.43246842526009
C            0.30598348942349        2.36695866457428       -0.07299974059220
C            1.56878514622798        1.92034606754479       -0.33353287158504
C           -0.36918185454423        0.18140707563740        0.64087685071506
C            0.92984001959453       -0.31431323288832        0.38745702864219
C            1.91723437561610        0.57120148163128       -0.10384411465391
C            3.21757427339186        0.07751117418733       -0.35208876776526
C            3.51921971653928       -1.23347679077508       -0.12016152731882
C            2.54147042300625       -2.11058856530157        0.36435451944886
C            1.27438612840323       -1.66630904639876        0.61147130979267
Cl          -2.90082262812562       -2.11236901651692       -0.58917980068559
H           -3.96429116270308        1.93416398840037       -0.26566476560748
H           -3.02966954520361        0.57442093380465       -0.52799451034329
H           -2.67482243329732        1.98647302583358       -1.32724607016850
H           -2.43893895527158        1.58071464820454        1.62720847060047
H           -2.06672003926463        3.07242118131978        0.79553790349651
H            0.04328020046905        3.39261669562023       -0.25545986940462
H            2.31527394307657        2.59628143136786       -0.71035846114132
H           -1.12119097146538       -0.50101140143522        1.00188510213590
H            3.97119119192958        0.75466603134784       -0.72604245083496
H            4.51932421331872       -1.59742397548226       -0.31780353888850
H            2.79986486430942       -3.14577435767242        0.53571151116764
H            0.52831176705292       -2.34503123919242        0.98341568652270
