18
 xtb: 6.5.1 (fef0646)
N           -0.11706046860571       -1.59500065379043        0.83425423658778
C            0.64613400732816       -1.88723473261125       -0.41435112995389
C            1.27129894378702       -0.65230599728877       -1.06240697963585
C            2.25138147036774        0.10630402399611       -0.14837191507934
C            1.59193613278090        1.24125036353826        0.62888333726371
Cl          -2.28867478185173        1.22497050958484       -0.02159610170577
H           -0.68956053025875       -2.36287705892853        1.16404343234780
H           -0.83822874159412       -0.79629063207156        0.61644128479665
H            0.44414018003286       -1.22674276511974        1.58674436517793
H           -0.00581761298534       -2.39579057690495       -1.11844271374315
H            1.42007541839867       -2.59513167188731       -0.13551695613277
H            0.48045926521887        0.03054900910284       -1.40553906412672
H            1.77738814287034       -0.97413001529505       -1.98549443691390
H            3.04498174981483        0.56875282594387       -0.78868949773122
H            2.77832817349099       -0.58558721020821        0.48430241503675
H            1.14577734374598        1.98070413011206        0.00506819884479
H            2.31187900815640        1.73113359239948        1.30187945095810
H            0.79506336176064        0.83833616047595        1.28737871373848
