25
 xtb: 6.5.1 (fef0646)
N           -1.88239806917641        1.36404399130342       -0.69583263125723
C           -0.46392127265795        1.80568853194683       -0.54333363479629
C            0.54387583292018        0.67102833909635       -0.78043558751275
C            0.38898450884787       -0.46129462378460        0.26207403715830
C            1.38982292499130       -1.60301110371992        0.01823244578299
C            2.83536240755480       -1.07856581337134        0.00748308940108
C            3.00508583914009        0.04200591620318       -1.03292375653981
C            2.00517558473377        1.18467383283516       -0.78272855247930
Cl          -2.89626143517121       -0.80715955921081        1.39720560731454
H           -2.49800307095089        2.23627617208710       -0.68477578136018
H           -2.15919401444690        0.72074488176661       -0.07511316196059
H           -1.98934669445822        1.02332596900791       -1.70862239106733
H           -0.30155550043945        2.23749863946321        0.44492937337513
H           -0.19184456215473        2.66356522754505       -1.24490179604670
H            0.35061676778101        0.25083737457311       -1.78193625211017
H           -0.64896074809466       -0.81283866065843        0.25064874355755
H            0.53725316585714       -0.01997552558741        1.25607101875167
H            1.15362838426549       -2.07020090871065       -0.94386064566886
H            1.24367761902579       -2.38231160593290        0.77299081042395
H            3.53030399454237       -1.90664818089987       -0.16856423313065
H            3.07941407062768       -0.69432114870637        1.00679667282728
H            2.84766421751517       -0.37861702410715       -2.03549535083357
H            4.04612337703458        0.40159772058324       -1.03112693145802
H            2.15193857435483        1.98333298798199       -1.52998206567245
H            2.23020378498071        1.65144625053541        0.18181330500207
