42
0.162
N           -5.77759   0.69043  -0.48458
C           -4.65288   0.68016  -1.46550
C           -3.31239   0.33786  -0.82061
C           -2.81755   1.40831   0.15242
C           -1.49277   1.05135   0.83423
C           -0.30467   0.98221  -0.12657
C            1.01626   0.68213   0.58217
C            2.20360   0.59441  -0.37658
C            3.52107   0.28196   0.33281
C            4.70735   0.17757  -0.62554
C            6.02157  -0.14700   0.08479
C            7.20834  -0.26299  -0.87275
C            8.51109  -0.59163  -0.15845
Cl          -5.62183  -2.36894   1.21006
H           -6.68983   0.83171  -0.94122
H           -5.65984   1.43662   0.21409
H           -5.81451  -0.20711   0.02795
H           -4.58718   1.65512  -1.96288
H           -4.87958  -0.03957  -2.26219
H           -2.55705   0.17319  -1.59846
H           -3.39641  -0.61992  -0.29443
H           -3.58666   1.58720   0.91346
H           -2.71213   2.36232  -0.37760
H           -1.59619   0.09195   1.35511
H           -1.26935   1.78136   1.62302
H           -0.22101   1.92619  -0.67797
H           -0.48551   0.21958  -0.89277
H            0.92711  -0.25586   1.14358
H            1.21092   1.44949   1.34085
H            2.29816   1.53389  -0.93434
H            2.00574  -0.16941  -1.13830
H            3.42161  -0.65289   0.89771
H            3.72405   1.05006   1.08890
H            4.81217   1.11415  -1.18641
H            4.50084  -0.58648  -1.38475
H            5.91309  -1.08025   0.65067
H            6.23116   0.61981   0.84041
H            7.31193   0.67298  -1.43711
H            6.98956  -1.02702  -1.63022
H            8.76408   0.17623   0.57503
H            9.35118  -0.67254  -0.85175
H            8.43832  -1.53832   0.38018
