42
 xtb: 6.5.1 (fef0646)
N           -5.77098981838119        0.54121157912048       -0.41177824751136
C           -4.67308430524133        0.64167132022661       -1.42628808906244
C           -3.30201558927589        0.33491514298628       -0.82460399688205
C           -2.81698107758729        1.40461931118706        0.15399511759432
C           -1.49105880608146        1.05370270578276        0.83610170443356
C           -0.30381897351899        0.98263720412357       -0.12551993598351
C            1.01732352490466        0.68269242496774        0.58267981684387
C            2.20433867982455        0.59469722161112       -0.37633382443421
C            3.52164805996204        0.28137433336595        0.33285297301149
C            4.70792924381653        0.17748355094103       -0.62547744793104
C            6.02199655154287       -0.14784279003358        0.08470895595495
C            7.20878386363340       -0.26301565238408       -0.87289112771606
C            8.51160833227404       -0.59188901938879       -0.15886507061763
Cl          -5.62524035983043       -2.22417318024323        1.12645083612449
H           -6.69390374061870        0.77635810693278       -0.91401189719700
H           -5.66851707819165        1.39481693264634        0.23684426060189
H           -5.79095291058720       -0.25561586050174        0.04593697713910
H           -4.60924360653231        1.65018653992026       -1.94136494632388
H           -4.88002679461595       -0.04522826664788       -2.25748408429866
H           -2.55801135492004        0.18216699776483       -1.60544487687097
H           -3.38168369488876       -0.62361378559986       -0.29893111241388
H           -3.58740848583677        1.58348852521404        0.91352306758660
H           -2.71407414085816        2.36219294969129       -0.37575084623120
H           -1.59488829560686        0.09304712039330        1.35667708662654
H           -1.26897843993579        1.78295556442530        1.62278363926324
H           -0.22080226739595        1.92606508774302       -0.67804602747178
H           -0.48575452468387        0.21944090105401       -0.89206642969338
H            0.92752316328482       -0.25568139603892        1.14382134887646
H            1.21136997929546        1.44967968783586        1.34094073757131
H            2.29845439084125        1.53401138498546       -0.93415234567279
H            2.00575224972378       -0.16920069113883       -1.13832397995466
H            3.42174126131750       -0.65319420132144        0.89752362095835
H            3.72429606450303        1.04969596356970        1.08907428211076
H            4.81237550602793        1.11422658632493       -1.18617650946151
H            4.50093555681301       -0.58633074703686       -1.38492556235229
H            5.91320303385180       -1.08066245297785        0.65039605919696
H            6.23132021577085        0.61934075205615        0.84057199864147
H            7.31197851359725        0.67305769311708       -1.43697526660189
H            6.98967676106652       -1.02691751286874       -1.63042199004804
H            8.76408767705667        0.17590459970744        0.57517030730673
H            9.35135970675257       -0.67221436188761       -0.85190975028101
H            8.43863911270041       -1.53863757254362        0.37968658392038
