 xtb: 6.5.1 (fef0646)
          01242317113D

 42 40  0     0  0            999 V2000
   -5.7776    0.6905   -0.4846 N   0  0  0  0  0  0  0  0  0  0  0  0
   -4.6529    0.6802   -1.4655 C   0  0  0  0  0  0  0  0  0  0  0  0
   -3.3124    0.3379   -0.8206 C   0  0  0  0  0  0  0  0  0  0  0  0
   -2.8175    1.4083    0.1524 C   0  0  0  0  0  0  0  0  0  0  0  0
   -1.4928    1.0514    0.8342 C   0  0  0  0  0  0  0  0  0  0  0  0
   -0.3047    0.9822   -0.1266 C   0  0  0  0  0  0  0  0  0  0  0  0
    1.0163    0.6821    0.5822 C   0  0  0  0  0  0  0  0  0  0  0  0
    2.2036    0.5944   -0.3766 C   0  0  0  0  0  0  0  0  0  0  0  0
    3.5211    0.2819    0.3328 C   0  0  0  0  0  0  0  0  0  0  0  0
    4.7073    0.1775   -0.6256 C   0  0  0  0  0  0  0  0  0  0  0  0
    6.0216   -0.1470    0.0848 C   0  0  0  0  0  0  0  0  0  0  0  0
    7.2083   -0.2630   -0.8728 C   0  0  0  0  0  0  0  0  0  0  0  0
    8.5111   -0.5917   -0.1585 C   0  0  0  0  0  0  0  0  0  0  0  0
   -5.6218   -2.3689    1.2101 Cl  0  0  0  0  0  0  0  0  0  0  0  0
   -6.6898    0.8317   -0.9412 H   0  0  0  0  0  0  0  0  0  0  0  0
   -5.6598    1.4367    0.2141 H   0  0  0  0  0  0  0  0  0  0  0  0
   -5.8145   -0.2071    0.0280 H   0  0  0  0  0  0  0  0  0  0  0  0
   -4.5872    1.6551   -1.9629 H   0  0  0  0  0  0  0  0  0  0  0  0
   -4.8796   -0.0395   -2.2622 H   0  0  0  0  0  0  0  0  0  0  0  0
   -2.5571    0.1732   -1.5985 H   0  0  0  0  0  0  0  0  0  0  0  0
   -3.3964   -0.6199   -0.2944 H   0  0  0  0  0  0  0  0  0  0  0  0
   -3.5866    1.5872    0.9135 H   0  0  0  0  0  0  0  0  0  0  0  0
   -2.7121    2.3623   -0.3776 H   0  0  0  0  0  0  0  0  0  0  0  0
   -1.5962    0.0920    1.3551 H   0  0  0  0  0  0  0  0  0  0  0  0
   -1.2693    1.7814    1.6230 H   0  0  0  0  0  0  0  0  0  0  0  0
   -0.2210    1.9262   -0.6780 H   0  0  0  0  0  0  0  0  0  0  0  0
   -0.4855    0.2196   -0.8928 H   0  0  0  0  0  0  0  0  0  0  0  0
    0.9271   -0.2559    1.1436 H   0  0  0  0  0  0  0  0  0  0  0  0
    1.2109    1.4495    1.3408 H   0  0  0  0  0  0  0  0  0  0  0  0
    2.2982    1.5339   -0.9344 H   0  0  0  0  0  0  0  0  0  0  0  0
    2.0057   -0.1694   -1.1383 H   0  0  0  0  0  0  0  0  0  0  0  0
    3.4216   -0.6529    0.8977 H   0  0  0  0  0  0  0  0  0  0  0  0
    3.7241    1.0500    1.0889 H   0  0  0  0  0  0  0  0  0  0  0  0
    4.8122    1.1141   -1.1864 H   0  0  0  0  0  0  0  0  0  0  0  0
    4.5008   -0.5865   -1.3848 H   0  0  0  0  0  0  0  0  0  0  0  0
    5.9131   -1.0803    0.6507 H   0  0  0  0  0  0  0  0  0  0  0  0
    6.2312    0.6198    0.8404 H   0  0  0  0  0  0  0  0  0  0  0  0
    7.3119    0.6729   -1.4371 H   0  0  0  0  0  0  0  0  0  0  0  0
    6.9895   -1.0271   -1.6302 H   0  0  0  0  0  0  0  0  0  0  0  0
    8.7641    0.1762    0.5750 H   0  0  0  0  0  0  0  0  0  0  0  0
    9.3512   -0.6726   -0.8518 H   0  0  0  0  0  0  0  0  0  0  0  0
    8.4383   -1.5384    0.3802 H   0  0  0  0  0  0  0  0  0  0  0  0
  1  2  1  0  0  0  0
  2  3  1  0  0  0  0
  3  4  1  0  0  0  0
  4  5  1  0  0  0  0
  5  6  1  0  0  0  0
  6  7  1  0  0  0  0
  7  8  1  0  0  0  0
  8  9  1  0  0  0  0
  9 10  1  0  0  0  0
 10 11  1  0  0  0  0
 11 12  1  0  0  0  0
 12 13  1  0  0  0  0
  1 15  1  0  0  0  0
  1 16  1  0  0  0  0
  1 17  1  0  0  0  0
  2 18  1  0  0  0  0
  2 19  1  0  0  0  0
  3 20  1  0  0  0  0
  3 21  1  0  0  0  0
  4 22  1  0  0  0  0
  4 23  1  0  0  0  0
  5 24  1  0  0  0  0
  5 25  1  0  0  0  0
  6 26  1  0  0  0  0
  6 27  1  0  0  0  0
  7 28  1  0  0  0  0
  7 29  1  0  0  0  0
  8 30  1  0  0  0  0
  8 31  1  0  0  0  0
  9 32  1  0  0  0  0
  9 33  1  0  0  0  0
 10 34  1  0  0  0  0
 10 35  1  0  0  0  0
 11 36  1  0  0  0  0
 11 37  1  0  0  0  0
 12 38  1  0  0  0  0
 12 39  1  0  0  0  0
 13 40  1  0  0  0  0
 13 41  1  0  0  0  0
 13 42  1  0  0  0  0
M  END
