 xtb: 6.5.1 (fef0646)
          01242317153D

 22 21  0     0  0            999 V2000
    1.6533   -1.0907   -0.8258 N   0  0  0  0  0  0  0  0  0  0  0  0
    0.3390   -1.6250   -0.3422 C   0  0  0  0  0  0  0  0  0  0  0  0
   -0.0600   -2.8611   -1.1424 C   0  0  0  0  0  0  0  0  0  0  0  0
   -0.7070   -0.5299   -0.3389 C   0  0  0  0  0  0  0  0  0  0  0  0
   -1.8120   -0.5441   -1.1798 C   0  0  0  0  0  0  0  0  0  0  0  0
   -2.7377    0.4807   -1.1504 C   0  0  0  0  0  0  0  0  0  0  0  0
   -2.5709    1.5401   -0.2825 C   0  0  0  0  0  0  0  0  0  0  0  0
   -1.4730    1.5740    0.5521 C   0  0  0  0  0  0  0  0  0  0  0  0
   -0.5495    0.5484    0.5198 C   0  0  0  0  0  0  0  0  0  0  0  0
    2.7013    1.1928    1.6861 Cl  0  0  0  0  0  0  0  0  0  0  0  0
    1.9991   -0.3393   -0.2050 H   0  0  0  0  0  0  0  0  0  0  0  0
    1.5501   -0.7001   -1.7711 H   0  0  0  0  0  0  0  0  0  0  0  0
    2.3693   -1.8289   -0.8613 H   0  0  0  0  0  0  0  0  0  0  0  0
    0.4721   -1.9330    0.7081 H   0  0  0  0  0  0  0  0  0  0  0  0
   -0.1513   -2.6224   -2.2015 H   0  0  0  0  0  0  0  0  0  0  0  0
   -1.0137   -3.2680   -0.8041 H   0  0  0  0  0  0  0  0  0  0  0  0
    0.6881   -3.6495   -1.0541 H   0  0  0  0  0  0  0  0  0  0  0  0
   -1.9524   -1.3618   -1.8654 H   0  0  0  0  0  0  0  0  0  0  0  0
   -3.5919    0.4533   -1.8079 H   0  0  0  0  0  0  0  0  0  0  0  0
   -3.2934    2.3403   -0.2596 H   0  0  0  0  0  0  0  0  0  0  0  0
   -1.3337    2.4035    1.2266 H   0  0  0  0  0  0  0  0  0  0  0  0
    0.3206    0.5908    1.1530 H   0  0  0  0  0  0  0  0  0  0  0  0
  1  2  1  0  0  0  0
  2  3  1  0  0  0  0
  2  4  1  0  0  0  0
  4  5  4  0  0  0  0
  5  6  4  0  0  0  0
  6  7  4  0  0  0  0
  7  8  4  0  0  0  0
  4  9  4  0  0  0  0
  8  9  4  0  0  0  0
  1 11  1  0  0  0  0
  1 12  1  0  0  0  0
  1 13  1  0  0  0  0
  2 14  1  0  0  0  0
  3 15  1  0  0  0  0
  3 16  1  0  0  0  0
  3 17  1  0  0  0  0
  5 18  1  0  0  0  0
  6 19  1  0  0  0  0
  7 20  1  0  0  0  0
  8 21  1  0  0  0  0
  9 22  1  0  0  0  0
M  END
