14
 xtb: 6.5.1 (fef0646)
N           -1.56128240467045       -0.47904673472561       -0.14950338567436
C           -0.62750599589276        0.59024465426261        0.32966969843936
C            0.74385203474868        0.56679279666849       -0.34918650396146
C            1.65397635712122       -0.53974975287122        0.18051192763575
H           -1.75180003910954       -0.40186655052541       -1.13349921615488
H           -2.41854823218977       -0.49269717834178        0.39763578058016
H           -1.08573220726134       -1.41986078658992        0.01589676365866
H           -0.52658797421932        0.55758198554195        1.41525437969089
H           -1.13945993624681        1.56206571090217        0.12084398913739
H            1.25768646316724        1.54260859950712       -0.12984976789135
H            0.63101369179457        0.54676756207897       -1.41708467800085
H            1.19534752017176       -1.52775602681553       -0.10092253514392
H            1.76789967403089       -0.52889384791958        1.22835179138519
H            2.62000689311460       -0.52296542936434       -0.31223419419600
