 xtb: 6.5.1 (fef0646)
          01232313463D

 27 27  0     0  0            999 V2000
    0.9356    0.2662   -0.0983 N   0  0  0  0  0  0  0  0  0  0  0  0
    2.4133    0.0719    0.0279 C   0  0  0  0  0  0  0  0  0  0  0  0
    2.8769   -1.0883   -0.8532 C   0  0  0  0  0  0  0  0  0  0  0  0
    2.3307   -2.4305   -0.3597 C   0  0  0  0  0  0  0  0  0  0  0  0
    2.7913   -3.5581   -1.2801 C   0  0  0  0  0  0  0  0  0  0  0  0
    4.3153   -3.6236   -1.3821 C   0  0  0  0  0  0  0  0  0  0  0  0
    4.6961   -4.6277   -2.4757 C   0  0  0  0  0  0  0  0  0  0  0  0
    5.8505   -5.2736   -2.3040 O   0  0  0  0  0  0  0  0  0  0  0  0
    4.0240   -4.7937   -3.4499 O   0  0  0  0  0  0  0  0  0  0  0  0
    4.8810   -2.2601   -1.8039 C   0  0  0  0  0  0  0  0  0  0  0  0
    4.4076   -1.1485   -0.8708 C   0  0  0  0  0  0  0  0  0  0  0  0
    0.5849    0.9733    0.5578 H   0  0  0  0  0  0  0  0  0  0  0  0
    0.4753   -0.6364    0.0911 H   0  0  0  0  0  0  0  0  0  0  0  0
    0.6990    0.5526   -1.0568 H   0  0  0  0  0  0  0  0  0  0  0  0
    2.6447   -0.1352    1.0741 H   0  0  0  0  0  0  0  0  0  0  0  0
    2.9116    0.9975   -0.2634 H   0  0  0  0  0  0  0  0  0  0  0  0
    2.5341   -0.9174   -1.8795 H   0  0  0  0  0  0  0  0  0  0  0  0
    1.2360   -2.4410   -0.3375 H   0  0  0  0  0  0  0  0  0  0  0  0
    2.6916   -2.6184    0.6540 H   0  0  0  0  0  0  0  0  0  0  0  0
    2.3895   -3.4128   -2.2842 H   0  0  0  0  0  0  0  0  0  0  0  0
    2.4105   -4.5109   -0.9109 H   0  0  0  0  0  0  0  0  0  0  0  0
    4.7428   -3.9215   -0.4186 H   0  0  0  0  0  0  0  0  0  0  0  0
    6.3052   -5.0680   -1.4765 H   0  0  0  0  0  0  0  0  0  0  0  0
    4.5523   -2.0472   -2.8231 H   0  0  0  0  0  0  0  0  0  0  0  0
    5.9715   -2.2892   -1.8067 H   0  0  0  0  0  0  0  0  0  0  0  0
    4.8176   -0.1967   -1.2110 H   0  0  0  0  0  0  0  0  0  0  0  0
    4.7760   -1.3331    0.1399 H   0  0  0  0  0  0  0  0  0  0  0  0
  1  2  1  0  0  0  0
  2  3  1  0  0  0  0
  3  4  1  0  0  0  0
  4  5  1  0  0  0  0
  5  6  1  0  0  0  0
  6  7  1  0  0  0  0
  7  8  1  0  0  0  0
  7  9  2  0  0  0  0
  6 10  1  0  0  0  0
  3 11  1  0  0  0  0
 10 11  1  0  0  0  0
  1 12  1  0  0  0  0
  1 13  1  0  0  0  0
  1 14  1  0  0  0  0
  2 15  1  0  0  0  0
  2 16  1  0  0  0  0
  3 17  1  0  0  0  0
  4 18  1  0  0  0  0
  4 19  1  0  0  0  0
  5 20  1  0  0  0  0
  5 21  1  0  0  0  0
  6 22  1  0  0  0  0
  8 23  1  0  0  0  0
 10 24  1  0  0  0  0
 10 25  1  0  0  0  0
 11 26  1  0  0  0  0
 11 27  1  0  0  0  0
M  CHG  1   1   1
M  END
