27
1.704
N           -3.15078  -1.15364  -1.10257
C           -2.77128   0.10900  -0.40687
C           -1.26439   0.21005  -0.12520
C           -0.77315  -0.85300   0.90621
C            0.50066  -0.42302   1.67746
C            1.42080   0.49342   0.83605
C            1.93240  -0.24387  -0.37864
O            3.19154  -0.71518  -0.32356
O            1.20059  -0.39378  -1.32776
C            0.68734   1.79695   0.40399
C           -0.84938   1.63324   0.32733
H           -2.92516  -1.98343  -0.53463
H           -2.65136  -1.24768  -1.99951
H           -4.16125  -1.18689  -1.30718
H           -3.32779   0.19792   0.53235
H           -3.08847   0.95947  -1.02187
H           -0.73961   0.00169  -1.07267
H           -0.57869  -1.79866   0.38628
H           -1.58392  -1.06762   1.61084
H            1.06565  -1.30797   1.99732
H            0.21823   0.09749   2.59996
H            2.30975   0.75728   1.43180
H            3.39924  -1.15813  -1.16437
H            1.07011   2.09185  -0.58073
H            0.94668   2.61965   1.08184
H           -1.28290   2.38170  -0.34670
H           -1.29373   1.83207   1.30834
