36

N          1.19882        1.10482       -0.05835
C          2.64257        1.13415        0.13282
C          3.05768        0.30547        1.34909
C          4.55736        0.33110        1.52239
C          5.22188        1.53945        1.76906
C          6.61448        1.58056        1.85173
C          7.37243        0.41145        1.72648
C          8.84336        0.42708        1.72352
C          9.59217        1.32152        2.38926
C         11.06011        1.38396        2.32696
C         11.77851        0.99328        1.19096
C         13.16159        1.13939        1.16026
F         13.83643        0.76350        0.06477
C         13.85255        1.68253        2.23296
C         13.15079        2.08513        3.36489
C         11.76051        1.93883        3.40965
C          6.70569       -0.79968        1.50645
C          5.31106       -0.84253        1.41011
Cl        -1.12057        0.26548        1.24493
H          0.81252        1.63878       -0.83937
H          0.62877        1.39708        0.77211
H          0.76943        0.15954       -0.11808
H          2.91878        2.18765        0.24098
H          3.09468        0.74947       -0.78714
H          2.71094       -0.72863        1.22662
H          2.58795        0.68795        2.26331
H          4.66889        2.46928        1.88482
H          7.09624        2.54467        1.99544
H          9.30994       -0.35125        1.12698
H          9.12558        2.06927        3.02672
H         11.28408        0.59154        0.31288
H         14.93160        1.79434        2.17701
H         13.67965        2.51848        4.20962
H         11.22737        2.26585        4.30078
H          7.26870       -1.72581        1.40470
H          4.82820       -1.80257        1.23962
