 xtb: 6.5.1 (fef0646)
          01232313523D

 36 36  0     0  0            999 V2000
    1.0955    0.8901    0.0320 N   0  0  0  0  0  0  0  0  0  0  0  0
    2.5571    0.8884    0.0343 C   0  0  0  0  0  0  0  0  0  0  0  0
    3.0761    0.0927    1.2360 C   0  0  0  0  0  0  0  0  0  0  0  0
    4.5699    0.2041    1.3306 C   0  0  0  0  0  0  0  0  0  0  0  0
    5.1550    1.2754    1.9970 C   0  0  0  0  0  0  0  0  0  0  0  0
    6.5261    1.4050    2.0690 C   0  0  0  0  0  0  0  0  0  0  0  0
    7.3681    0.4637    1.4699 C   0  0  0  0  0  0  0  0  0  0  0  0
    8.8157    0.5383    1.5173 C   0  0  0  0  0  0  0  0  0  0  0  0
    9.5457    1.3950    2.2461 C   0  0  0  0  0  0  0  0  0  0  0  0
   10.9941    1.4584    2.2990 C   0  0  0  0  0  0  0  0  0  0  0  0
   11.8206    0.7056    1.4614 C   0  0  0  0  0  0  0  0  0  0  0  0
   13.1894    0.8218    1.5763 C   0  0  0  0  0  0  0  0  0  0  0  0
   13.9716    0.0860    0.7545 F   0  0  0  0  0  0  0  0  0  0  0  0
   13.7920    1.6618    2.4957 C   0  0  0  0  0  0  0  0  0  0  0  0
   12.9740    2.4113    3.3245 C   0  0  0  0  0  0  0  0  0  0  0  0
   11.5998    2.3134    3.2263 C   0  0  0  0  0  0  0  0  0  0  0  0
    6.7721   -0.6024    0.7902 C   0  0  0  0  0  0  0  0  0  0  0  0
    5.3997   -0.7301    0.7238 C   0  0  0  0  0  0  0  0  0  0  0  0
    0.1383    2.1103    2.5253 Cl  0  0  0  0  0  0  0  0  0  0  0  0
    0.7287    1.4258   -0.7467 H   0  0  0  0  0  0  0  0  0  0  0  0
    0.5851    1.5403    1.3605 H   0  0  0  0  0  0  0  0  0  0  0  0
    0.7341   -0.0568   -0.0226 H   0  0  0  0  0  0  0  0  0  0  0  0
    2.8889    1.9260    0.1161 H   0  0  0  0  0  0  0  0  0  0  0  0
    2.9761    0.4684   -0.8914 H   0  0  0  0  0  0  0  0  0  0  0  0
    2.7839   -0.9541    1.1281 H   0  0  0  0  0  0  0  0  0  0  0  0
    2.6106    0.4916    2.1375 H   0  0  0  0  0  0  0  0  0  0  0  0
    4.5209    2.0119    2.4692 H   0  0  0  0  0  0  0  0  0  0  0  0
    6.9470    2.2503    2.5908 H   0  0  0  0  0  0  0  0  0  0  0  0
    9.3177   -0.2007    0.9066 H   0  0  0  0  0  0  0  0  0  0  0  0
    9.0457    2.1111    2.8841 H   0  0  0  0  0  0  0  0  0  0  0  0
   11.4157    0.0385    0.7181 H   0  0  0  0  0  0  0  0  0  0  0  0
   14.8671    1.7209    2.5506 H   0  0  0  0  0  0  0  0  0  0  0  0
   13.4165    3.0768    4.0503 H   0  0  0  0  0  0  0  0  0  0  0  0
   10.9762    2.9050    3.8806 H   0  0  0  0  0  0  0  0  0  0  0  0
    7.3999   -1.3431    0.3151 H   0  0  0  0  0  0  0  0  0  0  0  0
    4.9657   -1.5695    0.1986 H   0  0  0  0  0  0  0  0  0  0  0  0
  1  2  1  0  0  0  0
  2  3  1  0  0  0  0
  3  4  1  0  0  0  0
  4  5  4  0  0  0  0
  5  6  4  0  0  0  0
  6  7  4  0  0  0  0
  7  8  1  0  0  0  0
  8  9  2  0  0  0  0
  9 10  1  0  0  0  0
 10 11  4  0  0  0  0
 11 12  4  0  0  0  0
 12 13  1  0  0  0  0
 12 14  4  0  0  0  0
 14 15  4  0  0  0  0
 10 16  4  0  0  0  0
 15 16  4  0  0  0  0
  7 17  4  0  0  0  0
  4 18  4  0  0  0  0
 17 18  4  0  0  0  0
  1 20  1  0  0  0  0
 19 21  1  0  0  0  0
  1 22  1  0  0  0  0
  2 23  1  0  0  0  0
  2 24  1  0  0  0  0
  3 25  1  0  0  0  0
  3 26  1  0  0  0  0
  5 27  1  0  0  0  0
  6 28  1  0  0  0  0
  8 29  1  0  0  0  0
  9 30  1  0  0  0  0
 11 31  1  0  0  0  0
 14 32  1  0  0  0  0
 15 33  1  0  0  0  0
 16 34  1  0  0  0  0
 17 35  1  0  0  0  0
 18 36  1  0  0  0  0
M  END
