27
0.507
N           -3.71073  -0.15667   0.38338
C           -2.22727  -0.06292   0.53631
C           -1.49735  -0.16031  -0.79789
C            0.03975  -0.07051  -0.70472
C            0.66649  -1.22491   0.11226
C            2.20364  -1.15600   0.08102
C            2.70842   0.20431   0.59608
C            2.07257   1.36970  -0.18367
C            0.53593   1.28594  -0.15129
H           -3.97303  -1.04772  -0.04918
H           -4.06012   0.59816  -0.21516
H           -4.18693  -0.09074   1.28879
H           -1.88576  -0.85526   1.21042
H           -1.97698   0.87968   1.03433
H           -1.86544   0.62845  -1.46176
H           -1.77469  -1.10023  -1.28562
H            0.44257  -0.15673  -1.72723
H            0.30435  -2.19235  -0.25499
H            0.32613  -1.15529   1.14994
H            2.55381  -1.30863  -0.94607
H            2.63922  -1.97734   0.66445
H            3.80348   0.25549   0.54170
H            2.46331   0.30300   1.65966
H            2.41655   1.34187  -1.22375
H            2.41538   2.33406   0.21277
H            0.08117   2.11379  -0.70750
H            0.19270   1.39870   0.88160
