27
1.847
N           -2.56766  -1.60873   0.17457
C           -2.53024  -0.13824  -0.07662
C           -1.27352   0.54306   0.48685
C           -0.17634   0.83883  -0.55917
C            0.43408  -0.43758  -1.19955
C            1.35281  -1.20228  -0.23008
C            2.46531  -0.29427   0.31956
C            1.87942   0.96129   0.98570
C            0.95619   1.73065   0.02415
H           -3.41923  -2.03899  -0.21678
H           -2.56201  -1.81069   1.18521
H           -1.76017  -2.09397  -0.24155
H           -3.43356   0.30401   0.36485
H           -2.61507   0.05697  -1.15244
H           -0.85766  -0.07299   1.28940
H           -1.55120   1.48716   0.97185
H           -0.66223   1.41262  -1.36740
H            1.01135  -0.15548  -2.08820
H           -0.36279  -1.09004  -1.57396
H            1.78570  -2.08287  -0.72421
H            0.76331  -1.60088   0.60306
H            3.13020   0.00436  -0.49962
H            3.10218  -0.84551   1.02492
H            2.68564   1.61419   1.34765
H            1.32044   0.67264   1.88309
H            1.55478   2.14562  -0.79526
H            0.51860   2.59892   0.53249
