27
1.304
N           -3.48385  -0.33617   0.73330
C           -2.32098  -0.59196  -0.16946
C           -1.18005   0.39346   0.05486
C            0.00126   0.22877  -0.92213
C            0.74311  -1.12537  -0.76156
C            1.56692  -1.19211   0.53608
C            2.56093  -0.02227   0.62555
C            1.84143   1.33022   0.49258
C            1.01331   1.40042  -0.80287
H           -3.85712   0.60631   0.58362
H           -3.20105  -0.40959   1.71554
H           -4.24131  -1.00719   0.56933
H           -2.65375  -0.54133  -1.21212
H           -1.96970  -1.61820  -0.01999
H           -0.81988   0.30780   1.08322
H           -1.57196   1.41238  -0.02509
H           -0.42341   0.25733  -1.93985
H            1.41221  -1.27431  -1.61667
H            0.03111  -1.95685  -0.80555
H            2.09608  -2.15153   0.60577
H            0.89647  -1.17010   1.40202
H            3.30621  -0.11709  -0.17226
H            3.12826  -0.06788   1.56425
H            2.56554   2.15465   0.52955
H            1.18714   1.48292   1.35782
H            1.68990   1.38870  -1.66444
H            0.48015   2.35672  -0.86115
