27
1.376
N           -3.29414   0.05772  -0.40204
C           -2.32626   0.40493   0.68102
C           -1.07416  -0.46856   0.67673
C           -0.18625  -0.32201  -0.57386
C            0.94406  -1.38742  -0.60286
C            2.04845  -1.10173   0.43018
C            2.62997   0.31081   0.25353
C            1.52450   1.37808   0.31024
C            0.42432   1.09671  -0.72815
H           -2.89295   0.22704  -1.33084
H           -4.15139   0.61675  -0.32962
H           -3.55750  -0.93216  -0.34910
H           -2.83699   0.31386   1.64741
H           -2.05292   1.46183   0.59910
H           -1.37569  -1.51624   0.77659
H           -0.47097  -0.25864   1.56520
H           -0.83024  -0.50452  -1.44923
H            1.38770  -1.42328  -1.60419
H            0.51684  -2.38330  -0.43553
H            2.84405  -1.85491   0.35823
H            1.64394  -1.20699   1.44277
H            3.14598   0.37313  -0.71128
H            3.39900   0.51003   1.01119
H            1.94922   2.37900   0.15792
H            1.08853   1.40071   1.31488
H            0.84834   1.20016  -1.73323
H           -0.36084   1.85820  -0.66804
