  22

 N          2.7672855053       -0.6159831265       -0.9117685457
 C          1.9059926744        0.2150148042       -0.0617237490
 C          0.5298570173        0.4684187886       -0.6875065278
 C          2.6210134294        1.5107161760        0.2441039411
 C          2.9959088865        1.8113760855        1.5458947384
 C          3.6549878166        2.9929357500        1.8343026388
 C          3.9498049280        3.8887980470        0.8216789002
 C          3.5826556179        3.5963570882       -0.4802404458
 C          2.9231964825        2.4149902221       -0.7663435900
 Cl         5.2837373244       -1.0941042398        0.5073940206
 H          4.1070977365       -0.8767670031       -0.1583020320
 H          2.9879648061       -0.1367064530       -1.7786402657
 H          2.3191753410       -1.4998368757       -1.1279619969
 H          1.7699128638       -0.3395596211        0.8733338088
 H          0.6270431283        0.9540834342       -1.6558422169
 H         -0.0587651750        1.1124336386       -0.0400982253
 H         -0.0048903438       -0.4697072324       -0.8212938446
 H          2.7761594649        1.1116124127        2.3383901678
 H          3.9441581903        3.2122557595        2.8513425085
 H          4.4664253514        4.8104130089        1.0447241486
 H          3.8118090492        4.2895160280       -1.2764355490
 H          2.6440199053        2.2027233084       -1.7890478840
