18
 xtb: 6.5.1 (fef0646)
N           -2.14836806494899       -1.41164306708314       -0.89920267694653
C           -0.99805796951657       -0.53495524805012       -1.26359173314368
C           -0.59969527163488        0.40058167489260       -0.12868835806436
C            0.53394472262973        1.36153772241893       -0.49614116756793
C            1.84353789397779        0.65403961172545       -0.80235683141203
Br           2.49297612047036       -0.43666270755647        0.66122564054440
Cl          -4.88951329857909        0.94232586245593        0.05673884120396
H           -1.96062016676898       -1.95745673316243       -0.05600960465157
H           -2.47559585305231       -1.98538301976017       -1.64090393176855
H           -2.98877964413309       -0.77871865422398       -0.61499877816654
H           -1.26068911522446        0.06912952824049       -2.14131802357703
H           -0.17523917238306       -1.15431099389881       -1.53374972821956
H           -0.31254599405955       -0.17107756300162        0.75428498759446
H           -1.48110860614649        0.99666388212744        0.20596707111165
H            0.71046348016512        2.07932993463362        0.32373513641747
H            0.23119571854347        1.98530676667438       -1.35421403651531
H            2.63932259546295        1.35300694210492       -1.04193508782803
H            1.72966564638563       -0.00759248930173       -1.66996836182549
