 xtb: 6.5.1 (fef0646)
          01242317093D

 18 16  0     0  0            999 V2000
   -2.5932   -1.9660   -0.2366 N   0  0  0  0  0  0  0  0  0  0  0  0
   -1.3260   -1.8610   -1.0158 C   0  0  0  0  0  0  0  0  0  0  0  0
   -0.4607   -0.6950   -0.5533 C   0  0  0  0  0  0  0  0  0  0  0  0
    0.8435   -0.5655   -1.3398 C   0  0  0  0  0  0  0  0  0  0  0  0
    1.7093    0.5818   -0.8487 C   0  0  0  0  0  0  0  0  0  0  0  0
    2.2926    0.3610    0.9779 Br  0  0  0  0  0  0  0  0  0  0  0  0
   -4.2172    1.1300   -0.5739 Cl  0  0  0  0  0  0  0  0  0  0  0  0
   -3.1343   -1.0883   -0.3132 H   0  0  0  0  0  0  0  0  0  0  0  0
   -2.3991   -2.1204    0.7611 H   0  0  0  0  0  0  0  0  0  0  0  0
   -3.1895   -2.7358   -0.5680 H   0  0  0  0  0  0  0  0  0  0  0  0
   -1.5557   -1.7494   -2.0820 H   0  0  0  0  0  0  0  0  0  0  0  0
   -0.7617   -2.7974   -0.9357 H   0  0  0  0  0  0  0  0  0  0  0  0
   -0.2366   -0.8057    0.5133 H   0  0  0  0  0  0  0  0  0  0  0  0
   -1.0309    0.2378   -0.6272 H   0  0  0  0  0  0  0  0  0  0  0  0
    0.6182   -0.4455   -2.4076 H   0  0  0  0  0  0  0  0  0  0  0  0
    1.4078   -1.5030   -1.2632 H   0  0  0  0  0  0  0  0  0  0  0  0
    1.1669    1.5279   -0.8956 H   0  0  0  0  0  0  0  0  0  0  0  0
    2.6108    0.6961   -1.4550 H   0  0  0  0  0  0  0  0  0  0  0  0
  1  2  1  0  0  0  0
  2  3  1  0  0  0  0
  3  4  1  0  0  0  0
  4  5  1  0  0  0  0
  5  6  1  0  0  0  0
  1  8  1  0  0  0  0
  1  9  1  0  0  0  0
  1 10  1  0  0  0  0
  2 11  1  0  0  0  0
  2 12  1  0  0  0  0
  3 13  1  0  0  0  0
  3 14  1  0  0  0  0
  4 15  1  0  0  0  0
  4 16  1  0  0  0  0
  5 17  1  0  0  0  0
  5 18  1  0  0  0  0
M  END
