 xtb: 6.5.1 (fef0646)
          01242317153D

 28 28  0     0  0            999 V2000
   -3.1354    0.2013   -0.0552 N   0  0  0  0  0  0  0  0  0  0  0  0
   -2.2646    1.1623   -0.8070 C   0  0  0  0  0  0  0  0  0  0  0  0
   -2.9284    1.5667   -2.1195 C   0  0  0  0  0  0  0  0  0  0  0  0
   -0.8705    0.5946   -0.9703 C   0  0  0  0  0  0  0  0  0  0  0  0
   -0.3124    0.3019   -2.2321 C   0  0  0  0  0  0  0  0  0  0  0  0
    0.9433   -0.2151   -2.3482 C   0  0  0  0  0  0  0  0  0  0  0  0
   -0.1279    0.3370    0.1491 C   0  0  0  0  0  0  0  0  0  0  0  0
    1.1773   -0.1974    0.0704 C   0  0  0  0  0  0  0  0  0  0  0  0
    1.7259   -0.4774   -1.2021 C   0  0  0  0  0  0  0  0  0  0  0  0
    3.0322   -1.0126   -1.2810 C   0  0  0  0  0  0  0  0  0  0  0  0
    3.7517   -1.2554   -0.1492 C   0  0  0  0  0  0  0  0  0  0  0  0
    3.2065   -0.9793    1.1126 C   0  0  0  0  0  0  0  0  0  0  0  0
    1.9501   -0.4636    1.2238 C   0  0  0  0  0  0  0  0  0  0  0  0
   -1.6765    0.0452    3.2261 Cl  0  0  0  0  0  0  0  0  0  0  0  0
   -2.7582    0.0193    0.8903 H   0  0  0  0  0  0  0  0  0  0  0  0
   -3.1846   -0.6953   -0.5551 H   0  0  0  0  0  0  0  0  0  0  0  0
   -4.0932    0.5627    0.0480 H   0  0  0  0  0  0  0  0  0  0  0  0
   -2.1616    2.0693   -0.1884 H   0  0  0  0  0  0  0  0  0  0  0  0
   -3.0885    0.6962   -2.7547 H   0  0  0  0  0  0  0  0  0  0  0  0
   -2.3206    2.2828   -2.6736 H   0  0  0  0  0  0  0  0  0  0  0  0
   -3.9036    2.0225   -1.9466 H   0  0  0  0  0  0  0  0  0  0  0  0
   -0.8892    0.4882   -3.1211 H   0  0  0  0  0  0  0  0  0  0  0  0
    1.3548   -0.4321   -3.3194 H   0  0  0  0  0  0  0  0  0  0  0  0
   -0.5502    0.5252    1.1202 H   0  0  0  0  0  0  0  0  0  0  0  0
    3.4507   -1.2265   -2.2500 H   0  0  0  0  0  0  0  0  0  0  0  0
    4.7470   -1.6634   -0.2210 H   0  0  0  0  0  0  0  0  0  0  0  0
    3.7877   -1.1778    1.9987 H   0  0  0  0  0  0  0  0  0  0  0  0
    1.5283   -0.2538    2.1922 H   0  0  0  0  0  0  0  0  0  0  0  0
  1  2  1  0  0  0  0
  2  3  1  0  0  0  0
  2  4  1  0  0  0  0
  4  5  4  0  0  0  0
  5  6  2  0  0  0  0
  4  7  2  0  0  0  0
  7  8  4  0  0  0  0
  6  9  4  0  0  0  0
  8  9  4  0  0  0  0
  9 10  4  0  0  0  0
 10 11  2  0  0  0  0
 11 12  4  0  0  0  0
  8 13  4  0  0  0  0
 12 13  2  0  0  0  0
  1 15  1  0  0  0  0
  1 16  1  0  0  0  0
  1 17  1  0  0  0  0
  2 18  1  0  0  0  0
  3 19  1  0  0  0  0
  3 20  1  0  0  0  0
  3 21  1  0  0  0  0
  5 22  1  0  0  0  0
  6 23  1  0  0  0  0
  7 24  1  0  0  0  0
 10 25  1  0  0  0  0
 11 26  1  0  0  0  0
 12 27  1  0  0  0  0
 13 28  1  0  0  0  0
M  END
