 xtb: 6.5.1 (fef0646)
          02032320593D

 41 40  0     0  0            999 V2000
    5.2242   -1.7955   -0.4074 N   0  0  0  0  0  0  0  0  0  0  0  0
    4.2214   -1.3189   -1.4052 C   0  0  0  0  0  0  0  0  0  0  0  0
    3.7305    0.0991   -1.1289 C   0  0  0  0  0  0  0  0  0  0  0  0
    2.9195    0.2193    0.1611 C   0  0  0  0  0  0  0  0  0  0  0  0
    2.3638    1.6260    0.3876 C   0  0  0  0  0  0  0  0  0  0  0  0
    1.5859    1.7786    1.6981 C   0  0  0  0  0  0  0  0  0  0  0  0
    0.3730    0.8521    1.8249 C   0  0  0  0  0  0  0  0  0  0  0  0
   -0.6749    1.0545    0.7302 C   0  0  0  0  0  0  0  0  0  0  0  0
   -1.8880    0.1374    0.8884 C   0  0  0  0  0  0  0  0  0  0  0  0
   -2.9189    0.3120   -0.2270 C   0  0  0  0  0  0  0  0  0  0  0  0
   -4.1195   -0.6237   -0.0846 C   0  0  0  0  0  0  0  0  0  0  0  0
   -5.1456   -0.4592   -1.2067 C   0  0  0  0  0  0  0  0  0  0  0  0
   -6.3330   -1.3996   -1.0643 C   0  0  0  0  0  0  0  0  0  0  0  0
    5.5725   -2.7327   -0.6412 H   0  0  0  0  0  0  0  0  0  0  0  0
    4.8182   -1.8411    0.5343 H   0  0  0  0  0  0  0  0  0  0  0  0
    6.0288   -1.1595   -0.3701 H   0  0  0  0  0  0  0  0  0  0  0  0
    3.3688   -2.0070   -1.4218 H   0  0  0  0  0  0  0  0  0  0  0  0
    4.6638   -1.3744   -2.4072 H   0  0  0  0  0  0  0  0  0  0  0  0
    3.1204    0.4537   -1.9680 H   0  0  0  0  0  0  0  0  0  0  0  0
    4.5865    0.7805   -1.0869 H   0  0  0  0  0  0  0  0  0  0  0  0
    3.5360   -0.0694    1.0185 H   0  0  0  0  0  0  0  0  0  0  0  0
    2.0991   -0.5056    0.1380 H   0  0  0  0  0  0  0  0  0  0  0  0
    1.7264    1.9049   -0.4582 H   0  0  0  0  0  0  0  0  0  0  0  0
    3.1921    2.3442    0.3621 H   0  0  0  0  0  0  0  0  0  0  0  0
    1.2528    2.8175    1.8074 H   0  0  0  0  0  0  0  0  0  0  0  0
    2.2683    1.6050    2.5386 H   0  0  0  0  0  0  0  0  0  0  0  0
   -0.1021    0.9937    2.8031 H   0  0  0  0  0  0  0  0  0  0  0  0
    0.7018   -0.1927    1.8232 H   0  0  0  0  0  0  0  0  0  0  0  0
   -0.2237    0.8855   -0.2532 H   0  0  0  0  0  0  0  0  0  0  0  0
   -1.0013    2.1003    0.7209 H   0  0  0  0  0  0  0  0  0  0  0  0
   -2.3618    0.3160    1.8601 H   0  0  0  0  0  0  0  0  0  0  0  0
   -1.5560   -0.9064    0.9194 H   0  0  0  0  0  0  0  0  0  0  0  0
   -2.4392    0.1471   -1.1982 H   0  0  0  0  0  0  0  0  0  0  0  0
   -3.2628    1.3520   -0.2507 H   0  0  0  0  0  0  0  0  0  0  0  0
   -4.6036   -0.4559    0.8839 H   0  0  0  0  0  0  0  0  0  0  0  0
   -3.7729   -1.6627   -0.0545 H   0  0  0  0  0  0  0  0  0  0  0  0
   -4.6530   -0.6195   -2.1734 H   0  0  0  0  0  0  0  0  0  0  0  0
   -5.4905    0.5816   -1.2321 H   0  0  0  0  0  0  0  0  0  0  0  0
   -6.8578   -1.2316   -0.1234 H   0  0  0  0  0  0  0  0  0  0  0  0
   -6.0129   -2.4420   -1.0734 H   0  0  0  0  0  0  0  0  0  0  0  0
   -7.0557   -1.2707   -1.8715 H   0  0  0  0  0  0  0  0  0  0  0  0
  1  2  1  0  0  0  0
  2  3  1  0  0  0  0
  3  4  1  0  0  0  0
  4  5  1  0  0  0  0
  5  6  1  0  0  0  0
  6  7  1  0  0  0  0
  7  8  1  0  0  0  0
  8  9  1  0  0  0  0
  9 10  1  0  0  0  0
 10 11  1  0  0  0  0
 11 12  1  0  0  0  0
 12 13  1  0  0  0  0
  1 14  1  0  0  0  0
  1 15  1  0  0  0  0
  1 16  1  0  0  0  0
  2 17  1  0  0  0  0
  2 18  1  0  0  0  0
  3 19  1  0  0  0  0
  3 20  1  0  0  0  0
  4 21  1  0  0  0  0
  4 22  1  0  0  0  0
  5 23  1  0  0  0  0
  5 24  1  0  0  0  0
  6 25  1  0  0  0  0
  6 26  1  0  0  0  0
  7 27  1  0  0  0  0
  7 28  1  0  0  0  0
  8 29  1  0  0  0  0
  8 30  1  0  0  0  0
  9 31  1  0  0  0  0
  9 32  1  0  0  0  0
 10 33  1  0  0  0  0
 10 34  1  0  0  0  0
 11 35  1  0  0  0  0
 11 36  1  0  0  0  0
 12 37  1  0  0  0  0
 12 38  1  0  0  0  0
 13 39  1  0  0  0  0
 13 40  1  0  0  0  0
 13 41  1  0  0  0  0
M  CHG  1   1   1
M  END
