28
 xtb: 6.5.1 (fef0646)
N           -1.87440791041423       -1.58303286866322        0.63467911223760
C           -1.19867857985373       -1.88284704694782       -0.66826647839269
C           -0.43186144876329       -0.67845175332174       -1.21109272502722
C            0.70106630537296       -0.18083146154110       -0.29700442661410
C            1.28652829272557        1.15932278454720       -0.80440750073505
C            2.39735531995038        1.67932032266086        0.12380557978643
C            3.51640710840466        0.63538013753882        0.28135043984691
C            2.95219790345689       -0.70468964398513        0.78465645129673
C            1.83632431551805       -1.21988308869119       -0.14133378325584
Cl          -3.42041208853773        1.16859167658975        0.45538879685645
H           -2.42214905496267       -2.45879319280727        0.92312851519952
H           -2.37987375622786       -0.81092423798476        0.62438896487229
H           -1.10147430879522       -1.56277426418677        1.38271833025924
H           -1.94296744388894       -2.21352098100004       -1.40659823709378
H           -0.48980213913292       -2.76809871232599       -0.62483984221651
H           -1.15569191739691        0.13096540884365       -1.34870368934552
H           -0.02089631442841       -0.87987462745083       -2.20163014268664
H            0.28321290551243       -0.00056045478543        0.70814395186427
H            0.48327772152187        1.89874040974553       -0.91761705815802
H            1.68587963968660        1.00384939131034       -1.81006350029672
H            1.96929988819641        1.90358015489698        1.10974758545511
H            2.79598421463152        2.63111294017157       -0.24629868451367
H            4.30334165848913        1.00603509193220        0.95060079008033
H            4.00635636920960        0.48223200918052       -0.68918750172512
H            2.55421857682300       -0.57325754323669        1.79692205839181
H            3.75519462919311       -1.45121882513615        0.88232580145217
H            1.44104166270370       -2.17666214789827        0.22730892685644
H            2.25038444684610       -1.44085707546123       -1.13140526715172
