18
 xtb: 6.5.1 (fef0646)
N           -0.12991449040647       -0.21799333435652       -0.67193268800606
C            0.56530008168216       -0.40190758856767        0.63556287579717
C            2.07671932341859       -0.47895029669522        0.45570999704857
C            2.68421237940405        0.82725762680622       -0.05616003775616
C            4.19397593913189        0.74305176535318       -0.22270538073646
Cl          -3.90746672273370       -0.18876567620018        0.01385683135536
H            0.04909137580658        0.67457056332818       -1.09600472785968
H           -1.22735722122604       -0.20337045550072       -0.49683728319429
H            0.00946307355246       -0.97225796039868       -1.30254685711240
H            0.16474252403913       -1.30488284910077        1.14040938778610
H            0.29198296220762        0.42562583952676        1.32639457273233
H            2.27175555919170       -1.28794407063984       -0.26150989112579
H            2.53097454867740       -0.76953004418948        1.38091649480439
H            2.39668808601697        1.63871389365640        0.62907118639057
H            2.19471687921478        1.10651907329213       -1.01625639283662
H            4.59695514390205        1.67469363100150       -0.58288277814015
H            4.44210523987153       -0.04377075870965       -0.93447411104084
H            4.65225812256585        0.49545272749137        0.72344611355443
