 xtb: 6.5.1 (fef0646)
          01242317073D

 19 18  0     0  0            999 V2000
   -1.1724   -2.5049   -0.6205 N   0  0  0  0  0  0  0  0  0  0  0  0
   -1.1291   -1.1970    0.0940 C   0  0  0  0  0  0  0  0  0  0  0  0
   -0.3996   -0.1219   -0.7058 C   0  0  0  0  0  0  0  0  0  0  0  0
   -0.3212    1.1985   -0.0177 C   0  0  0  0  0  0  0  0  0  0  0  0
    0.3344    2.2807   -0.5067 C   0  0  0  0  0  0  0  0  0  0  0  0
    0.2623    3.4287    0.3369 C   0  0  0  0  0  0  0  0  0  0  0  0
   -0.4485    3.2171    1.4652 C   0  0  0  0  0  0  0  0  0  0  0  0
   -1.0485    1.5972    1.5188 S   0  0  0  0  0  0  0  0  0  0  0  0
    2.1479   -3.4228   -1.2755 Cl  0  0  0  0  0  0  0  0  0  0  0  0
   -1.6499   -3.2344   -0.0682 H   0  0  0  0  0  0  0  0  0  0  0  0
   -0.2161   -2.8348   -0.8226 H   0  0  0  0  0  0  0  0  0  0  0  0
   -1.6622   -2.4156   -1.5206 H   0  0  0  0  0  0  0  0  0  0  0  0
   -0.6417   -1.3223    1.0679 H   0  0  0  0  0  0  0  0  0  0  0  0
   -2.1481   -0.8614    0.3192 H   0  0  0  0  0  0  0  0  0  0  0  0
   -0.8911    0.0096   -1.6759 H   0  0  0  0  0  0  0  0  0  0  0  0
    0.6147   -0.4649   -0.9369 H   0  0  0  0  0  0  0  0  0  0  0  0
    0.8606    2.2694   -1.4488 H   0  0  0  0  0  0  0  0  0  0  0  0
    0.7307    4.3711    0.0936 H   0  0  0  0  0  0  0  0  0  0  0  0
   -0.6270    3.9440    2.2349 H   0  0  0  0  0  0  0  0  0  0  0  0
  1  2  1  0  0  0  0
  2  3  1  0  0  0  0
  3  4  1  0  0  0  0
  4  5  2  0  0  0  0
  5  6  4  0  0  0  0
  6  7  2  0  0  0  0
  4  8  1  0  0  0  0
  7  8  1  0  0  0  0
  1 10  1  0  0  0  0
  1 11  1  0  0  0  0
  1 12  1  0  0  0  0
  2 13  1  0  0  0  0
  2 14  1  0  0  0  0
  3 15  1  0  0  0  0
  3 16  1  0  0  0  0
  5 17  1  0  0  0  0
  6 18  1  0  0  0  0
  7 19  1  0  0  0  0
M  END
