 xtb: 6.5.1 (fef0646)
          01242316573D

 25 25  0     0  0            999 V2000
   -2.6402   -1.9915   -0.4503 N   0  0  0  0  0  0  0  0  0  0  0  0
   -1.8169   -1.9991    0.7933 C   0  0  0  0  0  0  0  0  0  0  0  0
   -0.6622   -1.0515    0.7036 C   0  0  0  0  0  0  0  0  0  0  0  0
   -0.8162    0.2900    1.1030 C   0  0  0  0  0  0  0  0  0  0  0  0
    0.2094    1.1797    0.9912 C   0  0  0  0  0  0  0  0  0  0  0  0
    0.5346   -1.4595    0.1815 C   0  0  0  0  0  0  0  0  0  0  0  0
    1.6221   -0.5659    0.0519 C   0  0  0  0  0  0  0  0  0  0  0  0
    1.4576    0.7776    0.4649 C   0  0  0  0  0  0  0  0  0  0  0  0
    2.5451    1.6718    0.3341 C   0  0  0  0  0  0  0  0  0  0  0  0
    3.7333    1.2486   -0.1815 C   0  0  0  0  0  0  0  0  0  0  0  0
    3.8961   -0.0821   -0.5915 C   0  0  0  0  0  0  0  0  0  0  0  0
    2.8686   -0.9700   -0.4794 C   0  0  0  0  0  0  0  0  0  0  0  0
   -3.5938    1.3426   -1.0096 Cl  0  0  0  0  0  0  0  0  0  0  0  0
   -2.0794   -2.2870   -1.2605 H   0  0  0  0  0  0  0  0  0  0  0  0
   -2.9785   -1.0341   -0.6463 H   0  0  0  0  0  0  0  0  0  0  0  0
   -3.4582   -2.6129   -0.3817 H   0  0  0  0  0  0  0  0  0  0  0  0
   -1.4482   -3.0112    0.9948 H   0  0  0  0  0  0  0  0  0  0  0  0
   -2.4393   -1.7347    1.6556 H   0  0  0  0  0  0  0  0  0  0  0  0
   -1.7666    0.6077    1.4975 H   0  0  0  0  0  0  0  0  0  0  0  0
    0.0791    2.2028    1.3008 H   0  0  0  0  0  0  0  0  0  0  0  0
    0.6533   -2.4786   -0.1419 H   0  0  0  0  0  0  0  0  0  0  0  0
    2.4202    2.6943    0.6483 H   0  0  0  0  0  0  0  0  0  0  0  0
    4.5556    1.9392   -0.2768 H   0  0  0  0  0  0  0  0  0  0  0  0
    4.8421   -0.4016   -0.9981 H   0  0  0  0  0  0  0  0  0  0  0  0
    2.9942   -1.9921   -0.7949 H   0  0  0  0  0  0  0  0  0  0  0  0
  1  2  1  0  0  0  0
  2  3  1  0  0  0  0
  3  4  4  0  0  0  0
  4  5  2  0  0  0  0
  3  6  2  0  0  0  0
  6  7  4  0  0  0  0
  5  8  4  0  0  0  0
  7  8  4  0  0  0  0
  8  9  4  0  0  0  0
  9 10  2  0  0  0  0
 10 11  4  0  0  0  0
  7 12  4  0  0  0  0
 11 12  2  0  0  0  0
  1 14  1  0  0  0  0
  1 15  1  0  0  0  0
  1 16  1  0  0  0  0
  2 17  1  0  0  0  0
  2 18  1  0  0  0  0
  4 19  1  0  0  0  0
  5 20  1  0  0  0  0
  6 21  1  0  0  0  0
  9 22  1  0  0  0  0
 10 23  1  0  0  0  0
 11 24  1  0  0  0  0
 12 25  1  0  0  0  0
M  END
