36
 xtb: 6.5.1 (fef0646)
N           -4.97720232519692       -1.10421548363604        0.58446916098216
C           -5.16875644056469        0.14039946975705        1.38099155862783
C           -4.42408589019414        1.32352621026039        0.76716384879352
C           -2.96137206001742        1.04914425866761        0.58018390809111
C           -2.48456774918025        0.54804407011360       -0.62221930385807
C           -1.14911796854774        0.24675597158878       -0.78171881344896
C           -0.24060376442603        0.43263231601666        0.26095036182561
C            1.16491253907550        0.10146835604120        0.05467809467547
C            2.12810566411564        0.18543295467290        0.98643855403545
C            3.53277250371969       -0.14260076575101        0.77161226301556
C            4.06076642414853       -0.36452250239600       -0.50005041774661
C            5.39711950238864       -0.66367669412935       -0.68115943320370
F            5.88739958486974       -0.87155381992745       -1.92967344823786
C            6.22887747596221       -0.75049049236796        0.42156738454447
C            5.72921946961158       -0.53342161411057        1.68939016944798
C            4.39582310923683       -0.22900177081167        1.86503471268339
C           -0.72839365040664        0.93115320279410        1.46956663066751
C           -2.06584013737941        1.22915558788320        1.62490191056105
Cl          -5.24179046169273       -0.31819237604414       -2.70346542260772
H           -3.98542277498157       -1.43218478001976        0.67173873473559
H           -5.18174409196572       -0.96212942447306       -0.38185358715737
H           -5.56132674226919       -1.89227940408018        0.96293824985610
H           -4.81009144342852       -0.01694269408210        2.42749637514270
H           -6.23382991900822        0.35792888124517        1.48335038749945
H           -4.55403464078098        2.22108548460776        1.37557429200396
H           -4.87244055657908        1.54875720485898       -0.20274117819990
H           -3.18598558175160        0.34590418238694       -1.41810999117259
H           -0.79914024312646       -0.15541739546361       -1.71923899936447
H            1.44205006738771       -0.16262138728897       -0.95589530583726
H            1.84304825898837        0.42297076198915        1.99250923199897
H            3.44171495206508       -0.28633409812113       -1.37394202918528
H            7.26707576079855       -0.98324367184867        0.27225188309487
H            6.37541760367905       -0.61959182264994        2.54910946593267
H            3.99517912162508       -0.09113093533718        2.85822963546998
H           -0.04407459887300        1.14177248802598        2.27285198356425
H           -2.42321788125423        1.63825974584872        2.55549133182801
