42
0.348
N           -5.18728  -0.33067   1.43938
C           -4.94060   1.13567   1.30955
C           -3.49470   1.46036   0.94392
C           -3.11581   1.01162  -0.46762
C           -1.68203   1.37756  -0.86363
C           -0.61838   0.61475  -0.07245
C            0.80650   0.94267  -0.51858
C            1.86842   0.15788   0.25153
C            3.29348   0.48356  -0.19524
C            4.35415  -0.31991   0.55714
C            5.77907   0.00357   0.10783
C            6.84074  -0.80886   0.85059
C            8.25599  -0.48288   0.39660
Cl          -4.60650  -2.03528  -1.61128
H           -6.15551  -0.53528   1.72377
H           -4.55876  -0.74717   2.13953
H           -5.01675  -0.81948   0.54444
H           -5.21099   1.62970   2.25160
H           -5.61522   1.55746   0.55542
H           -2.82587   0.99268   1.67461
H           -3.31411   2.53855   1.03749
H           -3.82587   1.44730  -1.18209
H           -3.24747  -0.07220  -0.55798
H           -1.52934   2.45607  -0.73815
H           -1.53007   1.19017  -1.93455
H           -0.79390  -0.46340  -0.16757
H           -0.72208   0.82637   0.99803
H            0.98940   2.01842  -0.40818
H            0.91075   0.74562  -1.59221
H            1.68439  -0.91738   0.13892
H            1.76481   0.35256   1.32583
H            3.48379   1.55622  -0.06828
H            3.39147   0.30352  -1.27267
H            4.16243  -1.39218   0.42952
H            4.25724  -0.14052   1.63475
H            5.97358   1.07457   0.24218
H            5.87265  -0.16828  -0.97135
H            6.63780  -1.87938   0.71594
H            6.74042  -0.63585   1.93010
H            9.00528  -1.06917   0.93320
H            8.48897   0.57152   0.55602
H            8.38496  -0.68252  -0.66883
