42
 xtb: 6.5.1 (fef0646)
N           -5.16983416233066       -0.40462826658725        1.31106344791267
C           -4.94453135847737        1.07651613183263        1.26874469623759
C           -3.50089147627795        1.44060326365301        0.92927843146210
C           -3.10539160687894        1.01958686852590       -0.48567350914017
C           -1.67040868804709        1.39297653851276       -0.86636260577536
C           -0.61308970839992        0.62019013885191       -0.07685515169159
C            0.81316122203028        0.94523683963315       -0.51918557785072
C            1.87214529711846        0.15730372499655        0.25103439847078
C            3.29738528135857        0.48277077694492       -0.19450651700391
C            4.35734527167790       -0.32118712841334        0.55785670113629
C            5.78211028987928        0.00327484884867        0.10924370681601
C            6.84371822533696       -0.80929525486152        0.85172043526470
C            8.25891260341337       -0.48179146831165        0.39882497565526
Cl          -4.64897402527609       -1.94376207109284       -1.46172086987705
H           -6.14902107078149       -0.56141547146463        1.69020492917120
H           -4.55095105443655       -0.77485098561074        2.09726649046246
H           -5.01426009474893       -0.83207880386706        0.49996500216012
H           -5.21595099829646        1.59843599163851        2.24615197015324
H           -5.61615477678532        1.54876733644560        0.54802659225354
H           -2.82730251814692        0.98638101705078        1.66965537721248
H           -3.32210737151544        2.53329792980730        1.03937859990101
H           -3.82200664459348        1.45190023876508       -1.18681405196260
H           -3.24335462545903       -0.06954575059056       -0.56717503286960
H           -1.52627074737029        2.46005204975117       -0.73454297827138
H           -1.52423417178142        1.19884385428268       -1.93580408125629
H           -0.79363619004235       -0.46151354807908       -0.17059240017558
H           -0.72107520361064        0.82639384915680        0.99692616439495
H            0.99191558166937        2.01900203526364       -0.40763613834648
H            0.91317945876834        0.74701348255063       -1.59247036214446
H            1.68512453979587       -0.91747411745246        0.13818566322327
H            1.76563712274536        0.35191759492212        1.32568907264448
H            3.48494092509272        1.55596201324063       -0.06775772393270
H            3.39281213429798        0.30359175382856       -1.27248416668965
H            4.16343151252215       -1.39257798091128        0.42942102018513
H            4.25798455485846       -0.14116516376526        1.63493575665063
H            5.97430819192434        1.07447471520174        0.24292756745228
H            5.87368329542176       -0.16803347829365       -0.97097249361301
H            6.63887343690052       -1.87954625457390        0.71580856721064
H            6.74104102583013       -0.63641771960676        1.93042197432837
H            9.00619451198508       -1.06867185281549        0.93396516889176
H            8.48944479953238        0.57186848786667        0.55686499766678
H            8.38612186749789       -0.68202513787995       -0.66819133207789
