42
 xtb: 6.5.1 (fef0646)
N           -4.72027310090337       -1.11874352990249        0.79505638779623
C           -4.21365601562585       -0.03215895242534       -0.09542631829188
C           -2.82564954118812        0.44207325751849        0.31537805195391
C           -2.27911276400883        1.54702310550317       -0.58997565050321
C           -0.90007600904209        2.05870411380201       -0.16315991742113
C            0.20583315617845        1.01020973568746       -0.29193896636064
C            1.58589269742925        1.54784311867182        0.08554366944381
C            2.68639000637332        0.49349956582904       -0.03036995843315
C            4.06855953621537        1.02800472467672        0.34332747419271
C            5.16736165169759       -0.02843129090680        0.22755903774170
C            6.55246516745086        0.51021518336594        0.58672180081224
C            7.65773114892573       -0.54822914432464        0.52254166810804
C            7.90736552829659       -1.07534883974194       -0.88338340048467
Cl          -8.18064190683233       -2.21533900224001       -0.38599638755648
H           -4.82125193204895       -0.81070301641747        1.74150620866763
H           -4.13197471585876       -1.94290761096953        0.74344683621117
H           -5.69699269900969       -1.43988365271886        0.47015362111274
H           -4.93089499944220        0.81324097015695       -0.10295115860475
H           -4.21418830352176       -0.37731365753188       -1.15541660580821
H           -2.16532127688164       -0.42765118276667        0.30359171749088
H           -2.87209748867456        0.77353118889531        1.34370600135949
H           -3.01118745229693        2.37027262490546       -0.61414089609293
H           -2.24286988841766        1.18048210892297       -1.62751817600957
H           -0.96530158874208        2.39774747990298        0.87980049353495
H           -0.64127994508901        2.93308000106724       -0.74559854850356
H            0.21550042321580        0.61955292987785       -1.31823229026183
H           -0.04199040627821        0.12836965749224        0.33111919025974
H            1.54293766855517        1.92805251478859        1.11576050286483
H            1.81500796318158        2.40386703239796       -0.53592124054813
H            2.69643289223007        0.09444485921380       -1.05386080552194
H            2.42827859527111       -0.37737585870994        0.59939375233470
H            4.03002649519460        1.41647906714172        1.36976783993551
H            4.29922502007155        1.88470875452620       -0.28464802347099
H            5.16431671181736       -0.43118270747800       -0.79406512546751
H            4.91414896218838       -0.88990439905866        0.86597504646726
H            6.49771346561551        0.94481664440310        1.59544079244268
H            6.78937980628540        1.34288898272290       -0.07486870278645
H            7.38927477275158       -1.38330977436404        1.18909551920980
H            8.57680988506041       -0.13428002208630        0.93190554351854
H            8.14599719583619       -0.25601351000382       -1.56856109837009
H            7.01999267403537       -1.57522987610114       -1.29095952517496
H            8.72316496848192       -1.78552806263943       -0.91542281610633
