 xtb: 6.5.1 (fef0646)
          01232314203D

 17 16  0     0  0            999 V2000
    0.9411    0.0581   -0.0440 N   0  0  0  0  0  0  0  0  0  0  0  0
    2.4386    0.0605   -0.0776 C   0  0  0  0  0  0  0  0  0  0  0  0
    2.9472    0.0895   -1.5118 C   0  0  0  0  0  0  0  0  0  0  0  0
    4.4807    0.0903   -1.5315 C   0  0  0  0  0  0  0  0  0  0  0  0
    5.0122    0.1203   -2.9551 C   0  0  0  0  0  0  0  0  0  0  0  0
    7.1783    0.1204   -2.9596 I   0  0  0  0  0  0  0  0  0  0  0  0
    0.5889    0.0387    0.9218 H   0  0  0  0  0  0  0  0  0  0  0  0
    0.5806   -0.7659   -0.5439 H   0  0  0  0  0  0  0  0  0  0  0  0
    0.5787    0.9003   -0.5111 H   0  0  0  0  0  0  0  0  0  0  0  0
    2.7961   -0.8351    0.4328 H   0  0  0  0  0  0  0  0  0  0  0  0
    2.7940    0.9359    0.4680 H   0  0  0  0  0  0  0  0  0  0  0  0
    2.5853    0.9852   -2.0209 H   0  0  0  0  0  0  0  0  0  0  0  0
    2.5857   -0.7851   -2.0566 H   0  0  0  0  0  0  0  0  0  0  0  0
    4.8524   -0.8023   -1.0255 H   0  0  0  0  0  0  0  0  0  0  0  0
    4.8521    0.9610   -0.9884 H   0  0  0  0  0  0  0  0  0  0  0  0
    4.6984    1.0194   -3.4800 H   0  0  0  0  0  0  0  0  0  0  0  0
    4.6984   -0.7558   -3.5174 H   0  0  0  0  0  0  0  0  0  0  0  0
  1  2  1  0  0  0  0
  2  3  1  0  0  0  0
  3  4  1  0  0  0  0
  4  5  1  0  0  0  0
  5  6  1  0  0  0  0
  1  7  1  0  0  0  0
  1  8  1  0  0  0  0
  1  9  1  0  0  0  0
  2 10  1  0  0  0  0
  2 11  1  0  0  0  0
  3 12  1  0  0  0  0
  3 13  1  0  0  0  0
  4 14  1  0  0  0  0
  4 15  1  0  0  0  0
  5 16  1  0  0  0  0
  5 17  1  0  0  0  0
M  CHG  1   1   1
M  END
