 xtb: 6.5.1 (fef0646)
          01242317103D

 21 19  0     0  0            999 V2000
   -1.0123   -0.7690    0.6774 N   0  0  0  0  0  0  0  0  0  0  0  0
   -0.0659   -0.0074   -0.1897 C   0  0  0  0  0  0  0  0  0  0  0  0
    1.3917   -0.3213    0.1261 C   0  0  0  0  0  0  0  0  0  0  0  0
    2.3731    0.4575   -0.7511 C   0  0  0  0  0  0  0  0  0  0  0  0
    3.8416    0.1120   -0.4849 C   0  0  0  0  0  0  0  0  0  0  0  0
    4.3150    0.5180    0.9035 C   0  0  0  0  0  0  0  0  0  0  0  0
   -4.3281    0.0534   -0.1929 Cl  0  0  0  0  0  0  0  0  0  0  0  0
   -0.8595   -0.5477    1.6735 H   0  0  0  0  0  0  0  0  0  0  0  0
   -0.8812   -1.7831    0.5627 H   0  0  0  0  0  0  0  0  0  0  0  0
   -1.9968   -0.5514    0.4536 H   0  0  0  0  0  0  0  0  0  0  0  0
   -0.2449    1.0686   -0.0777 H   0  0  0  0  0  0  0  0  0  0  0  0
   -0.2715   -0.2263   -1.2443 H   0  0  0  0  0  0  0  0  0  0  0  0
    1.5681   -1.3971    0.0119 H   0  0  0  0  0  0  0  0  0  0  0  0
    1.5857   -0.1120    1.1839 H   0  0  0  0  0  0  0  0  0  0  0  0
    2.2176    1.5332   -0.6050 H   0  0  0  0  0  0  0  0  0  0  0  0
    2.1300    0.2748   -1.8057 H   0  0  0  0  0  0  0  0  0  0  0  0
    4.4763    0.5914   -1.2429 H   0  0  0  0  0  0  0  0  0  0  0  0
    3.9908   -0.9658   -0.6303 H   0  0  0  0  0  0  0  0  0  0  0  0
    5.3761    0.3056    1.0528 H   0  0  0  0  0  0  0  0  0  0  0  0
    3.7680   -0.0107    1.6857 H   0  0  0  0  0  0  0  0  0  0  0  0
    4.1685    1.5863    1.0736 H   0  0  0  0  0  0  0  0  0  0  0  0
  1  2  1  0  0  0  0
  2  3  1  0  0  0  0
  3  4  1  0  0  0  0
  4  5  1  0  0  0  0
  5  6  1  0  0  0  0
  1  8  1  0  0  0  0
  1  9  1  0  0  0  0
  1 10  1  0  0  0  0
  2 11  1  0  0  0  0
  2 12  1  0  0  0  0
  3 13  1  0  0  0  0
  3 14  1  0  0  0  0
  4 15  1  0  0  0  0
  4 16  1  0  0  0  0
  5 17  1  0  0  0  0
  5 18  1  0  0  0  0
  6 19  1  0  0  0  0
  6 20  1  0  0  0  0
  6 21  1  0  0  0  0
M  END
