28
 xtb: 6.5.1 (fef0646)
N           -2.78708891175412       -1.00079926910499        0.54728582461538
C           -1.34070265917508       -0.97123605691661        0.93038705187319
C           -0.47477877333914       -0.46561913799724       -0.21603756890872
C            1.00017388201849       -0.21607854400380        0.15246217644047
C            1.74450037077716        0.51690639587819       -0.99065571713212
C            3.21164369682618        0.79799068408892       -0.62535349959928
C            3.94602590845093       -0.50338675160110       -0.26061613641825
C            3.22203002327879       -1.24252219782112        0.87757887568329
C            1.75319135387171       -1.51987295339407        0.51440335811310
Cl          -3.77245934784814        1.83730115169316       -0.38558518112548
H           -3.34353340572944       -1.44535715199602        1.35888646678894
H           -2.88974309389590       -1.75540531093446       -0.21882749912724
H           -3.13045410373029       -0.17990576873158        0.27861363581566
H           -0.95109831816927       -1.97990107410340        1.27496092384708
H           -1.20881145047884       -0.34096247209758        1.81643674168707
H           -0.91958061009461        0.45146337948649       -0.57962704746201
H           -0.52102815118881       -1.17683177684190       -1.04789201681320
H            1.02864880958576        0.43143622054397        1.04347807157131
H            1.21128030889937        1.43979901787958       -1.24918962511995
H            1.69964127743639       -0.10867282879777       -1.88977527276478
H            3.24403431626515        1.48824142744814        0.22800332378577
H            3.71835997305605        1.32478311536105       -1.44604695102601
H            4.99439368984716       -0.29208297115929        0.00294431381105
H            3.99597909592122       -1.14846100623428       -1.14749101860204
H            3.26826225236925       -0.63150295006142        1.78659701634725
H            3.75562884501855       -2.17388292207368        1.12620671602248
H            1.25490141178766       -2.05154240767294        1.33212057974898
H            1.71633651347525       -2.20395791587209       -0.34421108954071
