 xtb: 6.5.1 (fef0646)
          01242310093D

 28 27  0     0  0            999 V2000
   -2.7480   -1.1449    0.5850 N   0  0  0  0  0  0  0  0  0  0  0  0
   -1.3085   -1.0150    0.9540 C   0  0  0  0  0  0  0  0  0  0  0  0
   -0.4720   -0.4829   -0.2010 C   0  0  0  0  0  0  0  0  0  0  0  0
    1.0043   -0.2244    0.1579 C   0  0  0  0  0  0  0  0  0  0  0  0
    1.7402    0.5130   -0.9875 C   0  0  0  0  0  0  0  0  0  0  0  0
    3.2074    0.8004   -0.6262 C   0  0  0  0  0  0  0  0  0  0  0  0
    3.9498   -0.4975   -0.2652 C   0  0  0  0  0  0  0  0  0  0  0  0
    3.2331   -1.2415    0.8741 C   0  0  0  0  0  0  0  0  0  0  0  0
    1.7651   -1.5254    0.5144 C   0  0  0  0  0  0  0  0  0  0  0  0
   -3.8421    1.9958   -0.4414 Cl  0  0  0  0  0  0  0  0  0  0  0  0
   -3.3263   -1.4908    1.3713 H   0  0  0  0  0  0  0  0  0  0  0  0
   -2.8703   -1.7981   -0.2072 H   0  0  0  0  0  0  0  0  0  0  0  0
   -3.1322   -0.2303    0.2892 H   0  0  0  0  0  0  0  0  0  0  0  0
   -0.9268   -1.9856    1.2849 H   0  0  0  0  0  0  0  0  0  0  0  0
   -1.2089   -0.3491    1.8207 H   0  0  0  0  0  0  0  0  0  0  0  0
   -0.9228    0.4461   -0.5711 H   0  0  0  0  0  0  0  0  0  0  0  0
   -0.5203   -1.1797   -1.0453 H   0  0  0  0  0  0  0  0  0  0  0  0
    1.0302    0.4288    1.0452 H   0  0  0  0  0  0  0  0  0  0  0  0
    1.2085    1.4379   -1.2474 H   0  0  0  0  0  0  0  0  0  0  0  0
    1.6984   -0.1097   -1.8890 H   0  0  0  0  0  0  0  0  0  0  0  0
    3.2425    1.4887    0.2280 H   0  0  0  0  0  0  0  0  0  0  0  0
    3.7155    1.3265   -1.4465 H   0  0  0  0  0  0  0  0  0  0  0  0
    4.9953   -0.2888    0.0008 H   0  0  0  0  0  0  0  0  0  0  0  0
    3.9974   -1.1465   -1.1490 H   0  0  0  0  0  0  0  0  0  0  0  0
    3.2713   -0.6315    1.7858 H   0  0  0  0  0  0  0  0  0  0  0  0
    3.7603   -2.1730    1.1245 H   0  0  0  0  0  0  0  0  0  0  0  0
    1.2609   -2.0549    1.3325 H   0  0  0  0  0  0  0  0  0  0  0  0
    1.7201   -2.2050   -0.3447 H   0  0  0  0  0  0  0  0  0  0  0  0
  1  2  1  0  0  0  0
  2  3  1  0  0  0  0
  3  4  1  0  0  0  0
  4  5  1  0  0  0  0
  5  6  1  0  0  0  0
  6  7  1  0  0  0  0
  7  8  1  0  0  0  0
  4  9  1  0  0  0  0
  8  9  1  0  0  0  0
  1 11  1  0  0  0  0
  1 12  1  0  0  0  0
  1 13  1  0  0  0  0
  2 14  1  0  0  0  0
  2 15  1  0  0  0  0
  3 16  1  0  0  0  0
  3 17  1  0  0  0  0
  4 18  1  0  0  0  0
  5 19  1  0  0  0  0
  5 20  1  0  0  0  0
  6 21  1  0  0  0  0
  6 22  1  0  0  0  0
  7 23  1  0  0  0  0
  7 24  1  0  0  0  0
  8 25  1  0  0  0  0
  8 26  1  0  0  0  0
  9 27  1  0  0  0  0
  9 28  1  0  0  0  0
M  END
