 xtb: 6.5.1 (fef0646)
          01242310113D

 18 17  0     0  0            999 V2000
   -1.4171    1.1749   -0.2351 N   0  0  0  0  0  0  0  0  0  0  0  0
   -1.6367   -0.1748    0.3530 C   0  0  0  0  0  0  0  0  0  0  0  0
   -0.7205   -1.2504   -0.2365 C   0  0  0  0  0  0  0  0  0  0  0  0
    0.7448   -1.2250    0.2374 C   0  0  0  0  0  0  0  0  0  0  0  0
    1.6090   -0.1097   -0.3573 C   0  0  0  0  0  0  0  0  0  0  0  0
    1.3747    1.1598    0.2209 O   0  0  0  0  0  0  0  0  0  0  0  0
   -1.6456    1.1971   -1.2386 H   0  0  0  0  0  0  0  0  0  0  0  0
   -0.4150    1.4011   -0.1282 H   0  0  0  0  0  0  0  0  0  0  0  0
   -1.9707    1.9059    0.2352 H   0  0  0  0  0  0  0  0  0  0  0  0
   -2.6911   -0.4457    0.2036 H   0  0  0  0  0  0  0  0  0  0  0  0
   -1.4968   -0.1270    1.4403 H   0  0  0  0  0  0  0  0  0  0  0  0
   -0.7479   -1.1829   -1.3301 H   0  0  0  0  0  0  0  0  0  0  0  0
   -1.1470   -2.2364   -0.0043 H   0  0  0  0  0  0  0  0  0  0  0  0
    1.2092   -2.1917   -0.0015 H   0  0  0  0  0  0  0  0  0  0  0  0
    0.7759   -1.1536    1.3300 H   0  0  0  0  0  0  0  0  0  0  0  0
    1.4119   -0.0039   -1.4321 H   0  0  0  0  0  0  0  0  0  0  0  0
    2.6829   -0.3336   -0.2706 H   0  0  0  0  0  0  0  0  0  0  0  0
    1.9456    1.3228    0.9982 H   0  0  0  0  0  0  0  0  0  0  0  0
  1  2  1  0  0  0  0
  2  3  1  0  0  0  0
  3  4  1  0  0  0  0
  4  5  1  0  0  0  0
  5  6  1  0  0  0  0
  1  7  1  0  0  0  0
  1  8  1  0  0  0  0
  1  9  1  0  0  0  0
  2 10  1  0  0  0  0
  2 11  1  0  0  0  0
  3 12  1  0  0  0  0
  3 13  1  0  0  0  0
  4 14  1  0  0  0  0
  4 15  1  0  0  0  0
  5 16  1  0  0  0  0
  5 17  1  0  0  0  0
  6 18  1  0  0  0  0
M  CHG  1   1   1
M  END
