  11

 N          1.4165545957       -0.5461654054        0.0990936180
 C          0.6796987188        0.7017647243       -0.2451436838
 C         -0.7526701425        0.6362577814        0.2705448709
 F         -1.2714175514       -0.5532925065       -0.0263048963
 H          2.3655108894       -0.5612837570       -0.3051848753
 H          0.9013351939       -1.3656208451       -0.2570462592
 H          1.5039926491       -0.6568067983        1.1198621004
 H          0.6660833753        0.8063656411       -1.3412032772
 H          1.2104204601        1.5814261989        0.1488791661
 H         -1.4033340243        1.4075253658       -0.1718837605
 H         -0.8010113907        0.7438160474        1.3647952890
          11
        -15.04894621
 N          1.4332775419       -0.5195549073        0.1007477897
 C          0.6859145327        0.7282979716       -0.2199436457
 C         -0.7634301742        0.6150951817        0.2370045387
 F         -1.2439484597       -0.5747794119       -0.1163093573
 H          0.9516678422       -1.3305230839       -0.3148455741
 H          1.4773558671       -0.6754796894        1.1190254571
 H          2.3993604968       -0.4975648566       -0.2611877814
 H          0.7120686439        0.8784758628       -1.3102400114
 H          1.1835354851        1.5994459034        0.2315158291
 H         -1.4141930611        1.3853051169       -0.2068423314
 H         -0.8563948957        0.6858251548        1.3315507405
