18

N          1.11506       -0.28524       -0.25856
C          2.56883       -0.22880       -0.17202
C          3.03346       -0.87910        1.12167
C          4.56495       -0.84401        1.23921
C          5.05161       -1.48911        2.51007
O          6.23340       -1.00146        2.95893
O          4.47595       -2.40968        3.06309
Cl        -0.80734        1.65912        0.33646
H          0.71208        0.19913       -1.07783
H          0.63609        0.33856        0.44945
H          0.64460       -1.18584       -0.16425
H          2.85770        0.82537       -0.22328
H          2.96015       -0.75048       -1.05148
H          2.68067       -1.91795        1.15837
H          2.58269       -0.36890        1.98217
H          4.89927        0.20087        1.20774
H          5.01577       -1.38132        0.39812
H          6.63043       -0.27914        2.43902
