22

N          2.14212        0.55735       -1.24778
C          2.42810       -0.08570        0.05395
C          2.97584       -1.47300       -0.10150
C          4.35682       -1.68028       -0.23167
C          4.88033       -2.97428       -0.34131
C          4.04257       -4.09290       -0.32611
C          4.54829       -5.46806       -0.45891
C          5.73990       -5.90185       -0.03367
C          2.66078       -3.88454       -0.22772
C          2.12803       -2.59154       -0.11611
H          1.79500        1.51455       -1.12230
H          1.43601        0.02662       -1.77227
H          2.98772        0.59774       -1.82975
H          1.49340       -0.08235        0.62352
H          3.14307        0.56162        0.57318
H          5.05466       -0.84413       -0.22533
H          5.95823       -3.09723       -0.43583
H          3.87456       -6.18151       -0.93106
H          6.45938       -5.26753        0.47232
H          6.02235       -6.94266       -0.16982
H          1.98245       -4.73758       -0.21427
H          1.05096       -2.48849       -0.01310
