25
1.865
N           -1.45367  -0.25791   0.71875
C           -0.52988   0.18094  -0.36129
C            0.86573  -0.44799  -0.24563
C            1.61774   0.02052   1.02334
C            3.00672  -0.63282   1.12907
C            3.84847  -0.35336  -0.12761
C            3.11303  -0.81541  -1.39733
C            1.72578  -0.15900  -1.50059
Cl          -4.67686   0.98390   0.23495
H           -1.12518   0.05050   1.64693
H           -1.52721  -1.28944   0.74600
H           -2.41038   0.11964   0.58869
H           -0.43701   1.27268  -0.35498
H           -0.96401  -0.07209  -1.33595
H            0.73980  -1.54015  -0.17138
H            1.02183  -0.18452   1.92165
H            1.72442   1.11068   0.98626
H            2.88868  -1.71691   1.25291
H            3.53010  -0.29139   2.03340
H            4.83488  -0.83222  -0.05153
H            4.05131   0.72305  -0.19685
H            2.99719  -1.90647  -1.37329
H            3.71191  -0.60499  -2.29462
H            1.19903  -0.48702  -2.40663
H            1.83879   0.92602  -1.60607
