28
 xtb: 6.5.1 (fef0646)
N           -2.90873519271073       -0.66021830042115       -0.43221266350926
C           -1.53852721424588       -0.49776949204468       -1.01134100645687
C           -0.47741184359891       -0.47137073232257        0.08083013065207
C            0.94511735992068       -0.14051496974907       -0.40979181917352
C            1.53400454242124       -1.24718602694922       -1.31803717972802
C            2.95600540472544       -0.89572297962820       -1.79047171989533
C            3.88812201142850       -0.62725860477023       -0.59624210607153
C            3.31704119003799        0.47712311816513        0.30865683322146
C            1.89920335485352        0.11995274746437        0.78255625799686
Cl          -3.51169680895472        1.56374288082741        1.70827401681277
H           -3.14358815779283       -0.00595255864174        0.18708136255123
H           -2.95317221461711       -1.65262994858771       -0.01273760384222
H           -3.61268766771450       -0.74105425476392       -1.24671069700814
H           -1.49556981967116        0.41718669196962       -1.60844505414524
H           -1.27636766058456       -1.30663045468314       -1.76809168269019
H           -0.46333521200823       -1.43763400901182        0.59607320483343
H           -0.78813760494055        0.25801180983540        0.81657505537775
H            0.89789815245476        0.78154632577936       -1.01153904428188
H            0.88571700230023       -1.43894430623258       -2.18023595306212
H            1.56265269473292       -2.19130779635407       -0.75832024085762
H            2.92375536273339       -0.00277592321681       -2.42624407675953
H            3.37401391073480       -1.69099142501763       -2.42782983881103
H            4.90283022948263       -0.36220011007336       -0.93228738797560
H            4.00973552340460       -1.54658773736915       -0.00857000459297
H            3.28293753282290        1.42380232517337       -0.24571826285283
H            3.97386688033323        0.66637543033541        1.16948463476385
H            1.48207437032405        0.90237116229412        1.42777980203400
H            1.93163731228722       -0.78392357793987        1.40264272350813
