39

N          2.96855       -1.86506        1.45637
C          2.49450       -0.84044        0.48516
C          3.61383        0.13748        0.12359
C          4.76946       -0.54506       -0.54766
C          4.95600       -0.78375       -1.89237
C          6.19337       -1.44210       -2.15527
C          6.93810       -1.67263       -1.01290
C          8.25901       -2.25485       -0.91661
C          9.18733       -2.07527        0.09128
C         10.41556       -2.74684       -0.16580
C         10.40573       -3.44261       -1.36146
C         11.50220       -4.21852       -1.89199
C         12.44857       -4.89465       -1.14620
C         13.43854       -5.52522       -1.95368
C         13.23295       -5.32049       -3.30399
C         14.03397       -5.81803       -4.39789
C         14.27857       -5.21533       -5.61919
C         15.10351       -6.00870       -6.47112
C         15.46914       -7.19328       -5.87505
S         14.83544       -7.33650       -4.29610
S         11.83110       -4.36422       -3.56737
S          8.88799       -3.28778       -2.13785
S          6.08718       -1.12610        0.37640
H          2.22552       -2.53310        1.69664
H          3.30758       -1.44055        2.32998
H          3.75259       -2.40544        1.06193
H          1.65973       -0.31999        0.96329
H          2.12819       -1.38671       -0.38934
H          3.94992        0.67079        1.02172
H          3.20967        0.90021       -0.55401
H          4.25967       -0.48391       -2.66861
H          6.53676       -1.69374       -3.15296
H          9.02376       -1.45877        0.96665
H         11.27880       -2.69795        0.48637
H         12.44266       -4.94039       -0.06449
H         14.26906       -6.09412       -1.55156
H         13.88904       -4.24339       -5.89754
H         15.41048       -5.72453       -7.47031
H         16.08208       -7.98283       -6.28831
