  36

 N         -5.2634939138        1.3900814790       -0.9165810357
 C         -5.2909820975        0.5148171158        0.2834306552
 C         -4.1051601301       -0.4356080311        0.2752940597
 O         -2.8845444875        0.2919429209        0.2349587959
 C         -1.7636184752       -0.4617301317        0.1645310505
 C         -0.5047619220        0.2415354636        0.1401317410
 C         -0.4593826046        1.6404297653        0.2185576013
 C          0.7297382130        2.3177727780        0.1907860982
 C          0.7037361499       -0.4832712646        0.0361943226
 C          0.6887229020       -1.8991018723       -0.0329658432
 C         -0.5582879891       -2.5681580407        0.0123925760
 C         -1.7291718405       -1.8845727563        0.1084502519
 C          1.9107603882       -2.5902928793       -0.1411708644
 C          3.1026611027       -1.9235032813       -0.1795989744
 C          3.1544248263       -0.5109250277       -0.1088935637
 C          4.3607059245        0.2007461805       -0.1434130166
 C          4.3701651261        1.5788045129       -0.0684493681
 C          3.1939221568        2.2889634134        0.0420461940
 C          1.9569634794        1.6270969896        0.0792196428
 C          1.9398735449        0.2124039154        0.0019913957
 H         -6.0150666053        2.0976593019       -0.9036218765
 H         -5.3619450230        0.8359505436       -1.7806001962
 H         -4.3580420155        1.8804071107       -0.9685471222
 H         -6.2390812498       -0.0349391732        0.3281826489
 H         -5.2490299464        1.1384259702        1.1844069274
 H         -4.1425968512       -1.0754388579       -0.6133236827
 H         -4.0940931418       -1.0708041378        1.1692968141
 H         -1.3913464847        2.1735260350        0.3062104552
 H          0.7410309508        3.3930140155        0.2546952329
 H         -0.5658652529       -3.6448800880       -0.0309092639
 H         -2.6524135927       -2.4343426770        0.1437797704
 H          1.8944086271       -3.6663349538       -0.1943952858
 H          4.0257422449       -2.4726098509       -0.2638217036
 H          5.2872889709       -0.3421340534       -0.2293614214
 H          5.3104645580        2.1069993175       -0.0964372248
 H          3.2146714767        3.3645119478        0.1009249637
          36
        -53.27500730
 N         -4.6909095162        1.0525387954        1.4817265576
 C         -4.7525692819       -0.1393532054        0.5976554545
 C         -4.1646998226        0.1872641442       -0.7658257817
 O         -2.8575469149        0.7391921080       -0.6540669772
 C         -1.8459109116       -0.1378661019       -0.4667164476
 C         -0.5245965986        0.4259544683       -0.3341352623
 C         -0.3221441911        1.8108294628       -0.4118255038
 C          0.9264390085        2.3574285692       -0.2857104714
 C          0.5855996354       -0.4228036356       -0.1268612888
 C          0.4120939589       -1.8277527604       -0.0547162312
 C         -0.8927111519       -2.3589516067       -0.1978439232
 C         -1.9708674294       -1.5549111704       -0.3949409154
 C          1.5397633960       -2.6454296022        0.1514612796
 C          2.7901308325       -2.1106353362        0.2830011980
 C          2.9997127898       -0.7123794038        0.2148853050
 C          4.2693256756       -0.1343288229        0.3439668537
 C          4.4334559493        1.2338857145        0.2683274709
 C          3.3533667761        2.0653924599        0.0635092362
 C          2.0589986984        1.5402765890       -0.0718655481
 C          1.8829640942        0.1362528373        0.0062521457
 H         -5.0188918204        0.8504839754        2.4394835242
 H         -5.2647669740        1.8213060658        1.1039391817
 H         -3.7203204960        1.3960900204        1.5359420318
 H         -5.7876657247       -0.4905133471        0.5070642735
 H         -4.1898827262       -0.9559616744        1.0626863245
 H         -4.7675926957        0.9608210464       -1.2571142261
 H         -4.1438743200       -0.6670554358       -1.4517884069
 H         -1.1801109414        2.4400797144       -0.5825204007
 H          1.0583483386        3.4246066741       -0.3518265398
 H         -1.0203453539       -3.4280412104       -0.1511700247
 H         -2.9401541132       -2.0059982577       -0.5061162409
 H          1.4036106043       -3.7130916072        0.2037703843
 H          3.6388935292       -2.7555607672        0.4397814920
 H          5.1226330943       -0.7726026983        0.5030958533
 H          5.4203748342        1.6580027424        0.3697975066
 H          3.4955285095        3.1318308773        0.0045696575
