  36

 N         -5.3195198376       -1.3640536033        0.8535926470
 C         -5.2780759945       -0.4850018903       -0.3440319543
 C         -4.0859623972        0.4540908413       -0.2802294840
 O         -2.8722294000       -0.2839500611       -0.2276284885
 C         -1.7476222995        0.4593607641       -0.1442354236
 C         -0.4948040667       -0.2519378741       -0.1233700707
 C         -0.4591427450       -1.6525740660       -0.2024477630
 C          0.7213157658       -2.3371289806       -0.1805867725
 C          0.7183225933        0.4645133543       -0.0280156200
 C          0.7128834554        1.8804754325        0.0426734421
 C         -0.5300557218        2.5567481236        0.0145746182
 C         -1.7048774517        1.8807653218       -0.0754588781
 C          1.9426258848        2.5655830947        0.1358980881
 C          3.1275959717        1.8933974168        0.1593711620
 C          3.1697303745        0.4771402342        0.0900159887
 C          4.3708037447       -0.2419652829        0.1109027107
 C          4.3700566638       -1.6195410458        0.0399619501
 C          3.1891402379       -2.3224320053       -0.0542475578
 C          1.9568826553       -1.6535424671       -0.0797471323
 C          1.9496343983       -0.2383994293       -0.0053285620
 H         -6.0703867219       -2.0616211642        0.7952362392
 H         -5.4566702559       -0.8094786914        1.7054645500
 H         -4.4228564726       -1.8537373424        0.9449694933
 H         -6.2168121049        0.0737601566       -0.4343423826
 H         -5.1958331715       -1.1052338224       -1.2437888945
 H         -4.1401093541        1.0727288063        0.6220868055
 H         -4.0465047078        1.1104430159       -1.1576978969
 H         -1.3939949089       -2.1786564131       -0.2888608836
 H          0.7241944606       -3.4116395670       -0.2421084969
 H         -0.5313614075        3.6321151540        0.0664506873
 H         -2.6239011583        2.4371961521       -0.0944931443
 H          1.9335259122        3.6408952447        0.1884814079
 H          4.0542626909        2.4363752585        0.2308067905
 H          5.3012735635        0.2945118509        0.1832414552
 H          5.3064746295       -2.1531005007        0.0578995577
 H          3.2028723086       -3.3973275634       -0.1100522262
          36
        -53.38956044
 N         -5.3029364092       -1.3576284260        0.8896087102
 C         -5.2910049441       -0.4828483769       -0.3117305616
 C         -4.1005040737        0.4599958706       -0.2769960898
 O         -2.8845560805       -0.2746742039       -0.2313918803
 C         -1.7616301552        0.4717186172       -0.1557272710
 C         -0.5074499915       -0.2372866304       -0.1314632800
 C         -0.4687602363       -1.6378264724       -0.2101203604
 C          0.7127842297       -2.3202679035       -0.1812249746
 C          0.7038397922        0.4812902602       -0.0299656817
 C          0.6959594481        1.8973372552        0.0381875699
 C         -0.5477860520        2.5719615603       -0.0017313301
 C         -1.7210173904        1.8936649247       -0.0954337030
 C          1.9238550530        2.5844271831        0.1396931128
 C          3.1097133024        1.9141831406        0.1730859962
 C          3.1545272749        0.4979647293        0.1048610615
 C          4.3566494265       -0.2191185730        0.1346281117
 C          4.3587174239       -1.5966928127        0.0638236732
 C          3.1796780898       -2.3015313640       -0.0386587260
 C          1.9465453975       -1.6346164935       -0.0726325224
 C          1.9362263700       -0.2194283378        0.0012931516
 H         -6.0563732806       -2.0539728523        0.8514686322
 H         -5.4176477513       -0.8002340873        1.7431586006
 H         -4.4047711377       -1.8485455006        0.9594359918
 H         -6.2327032807        0.0737294763       -0.3821179027
 H         -5.2273425448       -1.1060430905       -1.2109362093
 H         -4.1440107368        1.0904670165        0.6176840573
 H         -4.0745276334        1.1048226181       -1.1635189631
 H         -1.4024929305       -2.1651005011       -0.3015588723
 H          0.7179732277       -3.3947778543       -0.2425126734
 H         -0.5510682970        3.6475974515        0.0439542338
 H         -2.6406489482        2.4487280459       -0.1247559754
 H          1.9124098058        3.6597603197        0.1912808146
 H          4.0350814174        2.4584338288        0.2513967741
 H          5.2857707188        0.3187663427        0.2134787911
 H          5.2958252993       -2.1287885004        0.0885243111
 H          3.1954345005       -3.3764317424       -0.0940231351
