36

N          3.78110        0.43759       -1.68092
C          2.74542       -0.32387       -0.92570
C          3.32332       -1.66332       -0.47466
O          4.46945       -1.39780        0.33955
C          5.14997       -2.49517        0.82698
C          6.25780       -2.23255        1.67646
C          6.64055       -0.93328        2.06943
C          7.74521       -0.71332        2.89930
C          7.02559       -3.32317        2.16360
C          6.67784       -4.64868        1.81942
C          5.56893       -4.87903        1.00194
C          4.81301       -3.81568        0.51004
C          7.44162       -5.72014        2.29811
C          8.55086       -5.49447        3.11314
C          8.91804       -4.19358        3.47222
C         10.03065       -3.95838        4.29188
C         10.38396       -2.65901        4.64964
C          9.62924       -1.57984        4.19307
C          8.51287       -1.78474        3.36654
C          8.15127       -3.10003        3.00081
H          3.44720        1.36924       -1.95735
H          4.08766       -0.05698       -2.52862
H          4.61593        0.56041       -1.08735
H          1.88735       -0.45343       -1.59050
H          2.47361        0.30347       -0.07205
H          3.61401       -2.23991       -1.36142
H          2.56428       -2.20490        0.10101
H          6.07039       -0.06825        1.74344
H          8.00151        0.30593        3.18196
H          5.28482       -5.89629        0.73709
H          3.96892       -4.07305       -0.11976
H          7.18395       -6.74545        2.04143
H          9.12557       -6.34859        3.46656
H         10.63027       -4.78700        4.66094
H         11.24814       -2.48921        5.28726
H          9.92270       -0.57439        4.48811
