15
0.0
O           -1.26508   0.95725   0.02722
C           -1.32971  -0.44068  -0.15677
C           -0.05921  -1.12940   0.33227
C            1.19706  -0.55875  -0.31959
N            1.47747   0.83790   0.11169
H           -2.11709   1.39808  -0.16316
H           -1.48399  -0.62797  -1.22861
H           -2.21283  -0.82088   0.37865
H           -0.12632  -2.21186   0.16092
H            0.01635  -0.99755   1.41821
H            1.08808  -0.58414  -1.41198
H            2.07220  -1.18316  -0.09025
H            0.62874   1.41371  -0.02109
H            2.24941   1.26497  -0.42128
H            1.72159   0.87807   1.11133
