50
1.134
N           -6.73420   1.85224   2.73462
C           -7.70919   0.77535   2.39884
C           -7.91986   0.61559   0.89072
C           -6.74492   0.04586   0.17034
C           -6.80267  -0.76010  -0.92244
C           -5.53258  -1.14904  -1.42764
C           -4.47429  -0.64116  -0.72500
C           -3.07859  -0.85764  -0.99937
C           -2.54979  -1.60941  -2.01394
C           -1.13073  -1.66403  -2.04767
C           -0.43289  -2.42486  -3.12242
C           -0.53124  -0.95889  -1.01625
C            0.86518  -0.80653  -0.66082
C            1.88974  -1.50670  -1.27422
C            3.23488  -1.34343  -0.93491
C            3.65799  -0.47250   0.05031
C            5.06807  -0.31704   0.38461
C            6.12662  -0.25610  -0.49597
C            6.00549  -0.29588  -1.98035
C            7.38662  -0.13616   0.15986
C            7.30373  -0.08614   1.50795
S            5.66376  -0.18641   2.02272
C            2.64431   0.26411   0.75581
N            2.82826   1.14169   1.72309
S            1.36206   1.70567   2.18840
N            0.44523   0.84455   1.13913
C            1.24348   0.09736   0.40042
S           -1.77482  -0.17985  -0.07597
S           -5.08167   0.33121   0.58697
Cl           2.55514   1.80617  -2.49984
H           -7.07138   2.77072   2.41200
H           -5.84644   1.66500   2.25664
H           -6.55013   1.91198   3.74473
H           -8.66275   0.98844   2.89695
H           -7.36295  -0.17681   2.81708
H           -8.16329   1.58864   0.45211
H           -8.79082  -0.02162   0.69868
H           -7.73442  -1.07124  -1.36877
H           -5.41394  -1.78609  -2.28981
H           -3.16211  -2.12455  -2.73635
H           -1.13382  -2.72345  -3.90217
H            0.01939  -3.33560  -2.72983
H            0.33562  -1.81688  -3.60044
H            1.65283  -2.22812  -2.03150
H            3.97404  -1.93972  -1.44041
H            5.05213   0.11828  -2.30858
H            6.08232  -1.31821  -2.35114
H            6.79602   0.28952  -2.45000
H            8.31849  -0.08506  -0.38198
H            8.13490   0.00582   2.18070
