50
0.895
N           -8.59491  -1.84243  -0.79857
C           -8.85558  -0.37470  -0.77187
C           -8.26141   0.31101   0.46140
C           -6.77153   0.37823   0.46253
C           -6.02804   1.38099   1.00057
C           -4.62455   1.18981   0.88724
C           -4.26988   0.02923   0.25837
C           -2.92579  -0.42067   0.01553
C           -2.57839  -1.57669  -0.62816
C           -1.18455  -1.78797  -0.74911
C           -0.61100  -2.97805  -1.43658
C           -0.43401  -0.77584  -0.18278
C            1.02124  -0.69368  -0.14912
C            1.80080  -1.75040   0.28669
C            3.19353  -1.67635   0.36039
C            3.90248  -0.54608  -0.00393
C            5.35323  -0.47838   0.11662
C            6.26158  -1.47075  -0.18295
C            5.91356  -2.80782  -0.74029
C            7.60815  -1.08891   0.08780
C            7.73933   0.16900   0.56448
S            6.20266   0.93364   0.69963
C            3.15008   0.58408  -0.48314
N            3.62516   1.73061  -0.93013
S            2.35864   2.66015  -1.40019
N            1.15547   1.59583  -1.06828
C            1.70055   0.50791  -0.56057
S           -1.49197   0.42830   0.51603
S           -5.71384  -0.83006  -0.20410
Cl           0.94960   2.06268   2.11543
H           -7.58171  -2.00802  -0.74112
H           -8.94632  -2.28638  -1.65683
H           -9.02963  -2.30853   0.00774
H           -9.93786  -0.20348  -0.81891
H           -8.44287   0.08818  -1.67561
H           -8.58999  -0.21472   1.36366
H           -8.65745   1.32906   0.55187
H           -6.46861   2.24210   1.47855
H           -3.89703   1.89056   1.26556
H           -3.30914  -2.26527  -1.01979
H            0.35662  -2.74559  -1.88130
H           -1.26829  -3.31978  -2.23625
H           -0.47598  -3.80362  -0.73751
H            1.30588  -2.64769   0.61448
H            3.73715  -2.51662   0.75471
H            5.75252  -3.53320   0.05712
H            6.71589  -3.18399  -1.37561
H            5.01022  -2.75764  -1.34821
H            8.44273  -1.75192  -0.08105
H            8.66586   0.64316   0.82635
