28
0.053
N           -2.28462  -0.00653  -1.10579
C           -1.77909  -1.35768  -0.72736
C           -0.63789  -1.29306   0.28126
C            0.58403  -0.48297  -0.19064
C            1.24679  -1.08644  -1.45235
C            2.45977  -0.25538  -1.90595
C            3.49068  -0.11375  -0.77299
C            2.84483   0.48906   0.48581
C            1.63640  -0.34660   0.93790
Cl          -2.78124   1.75044   1.84618
H           -1.57769   0.52711  -1.63991
H           -2.50963   0.54589  -0.25943
H           -3.13869  -0.05633  -1.68797
H           -1.46250  -1.89472  -1.62670
H           -2.60734  -1.95061  -0.31591
H           -0.30637  -2.30531   0.54440
H           -1.01049  -0.85801   1.21657
H            0.24745   0.53397  -0.44717
H            0.51505  -1.17923  -2.26482
H            1.56436  -2.11114  -1.22654
H            2.12073   0.74179  -2.21473
H            2.92145  -0.69637  -2.80067
H            4.34940   0.48951  -1.09891
H            3.90298  -1.10189  -0.53182
H            2.51696   1.51412   0.27051
H            3.58070   0.58210   1.29697
H            1.17476   0.07954   1.83842
H            1.97066  -1.34942   1.22885
