 xtb: 6.5.1 (fef0646)
          01242310103D

 28 27  0     0  0            999 V2000
   -2.2846   -0.0065   -1.1058 N   0  0  0  0  0  0  0  0  0  0  0  0
   -1.7791   -1.3577   -0.7274 C   0  0  0  0  0  0  0  0  0  0  0  0
   -0.6379   -1.2931    0.2813 C   0  0  0  0  0  0  0  0  0  0  0  0
    0.5840   -0.4830   -0.1906 C   0  0  0  0  0  0  0  0  0  0  0  0
    1.2468   -1.0864   -1.4524 C   0  0  0  0  0  0  0  0  0  0  0  0
    2.4598   -0.2554   -1.9060 C   0  0  0  0  0  0  0  0  0  0  0  0
    3.4907   -0.1138   -0.7730 C   0  0  0  0  0  0  0  0  0  0  0  0
    2.8448    0.4890    0.4858 C   0  0  0  0  0  0  0  0  0  0  0  0
    1.6364   -0.3466    0.9379 C   0  0  0  0  0  0  0  0  0  0  0  0
   -2.7812    1.7505    1.8462 Cl  0  0  0  0  0  0  0  0  0  0  0  0
   -1.5777    0.5271   -1.6399 H   0  0  0  0  0  0  0  0  0  0  0  0
   -2.5096    0.5459   -0.2594 H   0  0  0  0  0  0  0  0  0  0  0  0
   -3.1387   -0.0563   -1.6880 H   0  0  0  0  0  0  0  0  0  0  0  0
   -1.4625   -1.8947   -1.6267 H   0  0  0  0  0  0  0  0  0  0  0  0
   -2.6074   -1.9506   -0.3159 H   0  0  0  0  0  0  0  0  0  0  0  0
   -0.3064   -2.3053    0.5444 H   0  0  0  0  0  0  0  0  0  0  0  0
   -1.0105   -0.8580    1.2166 H   0  0  0  0  0  0  0  0  0  0  0  0
    0.2475    0.5340   -0.4472 H   0  0  0  0  0  0  0  0  0  0  0  0
    0.5150   -1.1792   -2.2648 H   0  0  0  0  0  0  0  0  0  0  0  0
    1.5643   -2.1112   -1.2265 H   0  0  0  0  0  0  0  0  0  0  0  0
    2.1207    0.7418   -2.2147 H   0  0  0  0  0  0  0  0  0  0  0  0
    2.9214   -0.6964   -2.8007 H   0  0  0  0  0  0  0  0  0  0  0  0
    4.3494    0.4895   -1.0989 H   0  0  0  0  0  0  0  0  0  0  0  0
    3.9030   -1.1019   -0.5318 H   0  0  0  0  0  0  0  0  0  0  0  0
    2.5170    1.5141    0.2705 H   0  0  0  0  0  0  0  0  0  0  0  0
    3.5807    0.5821    1.2970 H   0  0  0  0  0  0  0  0  0  0  0  0
    1.1748    0.0795    1.8384 H   0  0  0  0  0  0  0  0  0  0  0  0
    1.9707   -1.3494    1.2288 H   0  0  0  0  0  0  0  0  0  0  0  0
  1  2  1  0  0  0  0
  2  3  1  0  0  0  0
  3  4  1  0  0  0  0
  4  5  1  0  0  0  0
  5  6  1  0  0  0  0
  6  7  1  0  0  0  0
  7  8  1  0  0  0  0
  4  9  1  0  0  0  0
  8  9  1  0  0  0  0
  1 11  1  0  0  0  0
  1 12  1  0  0  0  0
  1 13  1  0  0  0  0
  2 14  1  0  0  0  0
  2 15  1  0  0  0  0
  3 16  1  0  0  0  0
  3 17  1  0  0  0  0
  4 18  1  0  0  0  0
  5 19  1  0  0  0  0
  5 20  1  0  0  0  0
  6 21  1  0  0  0  0
  6 22  1  0  0  0  0
  7 23  1  0  0  0  0
  7 24  1  0  0  0  0
  8 25  1  0  0  0  0
  8 26  1  0  0  0  0
  9 27  1  0  0  0  0
  9 28  1  0  0  0  0
M  END
