25
 xtb: 6.5.1 (fef0646)
N           -3.32086772671445       -0.31197511256149        0.13491462534167
C           -2.47252081008497       -0.75174749268449        1.28533689115396
C           -1.08907977261651       -0.17889680196100        1.23556943335604
C           -0.55745068786875        0.51891333029425        2.33865733194540
C            0.70134831789567        1.04034248469092        2.30181958353804
C           -0.32026753687586       -0.33206066084148        0.11557303709911
C            0.98713332346223        0.19593615060097        0.03825828439377
C            1.50939239207573        0.89540219994451        1.15140699110697
C            2.81801605486194        1.42533698689456        1.07182698984164
C            3.56315899734783        1.26728054289246       -0.05849589294540
C            3.04411733752345        0.57504585068633       -1.16197845576487
C            1.78745478165722        0.05026813817127       -1.11803937873859
Cl          -2.01650863224069       -1.51950053829875       -2.63610943406666
H           -4.31566955157695       -0.62659696876170        0.28837264040201
H           -2.97880399115410       -0.59521694812012       -0.70614227552820
H           -3.38863868496284        0.75332679078132        0.17593689800886
H           -2.42263376228381       -1.83353288328451        1.31986954277826
H           -2.94241921881231       -0.47215882231094        2.28232423567004
H           -1.14649161685917        0.63564396522025        3.24667528607651
H            1.11576738686281        1.56029220446142        3.15607686275053
H           -0.75595137501168       -0.83807081013518       -0.72191520174909
H            3.22645115694346        1.93771351344176        1.90372362457644
H            4.54708081421407        1.65458724460868       -0.13635218059090
H            3.60640895723424        0.45093467535796       -2.07263425180128
H            1.34107034020334       -0.47261770508015       -1.97077308249482
