26
0.919
N            2.07014  -2.14446  -0.19657
C            0.68303  -1.63560  -0.40290
C            0.29744  -0.57747   0.62533
C           -1.08248  -0.02610   0.41014
C           -2.14281  -0.71023   0.83047
C           -3.56244  -0.27267   0.64101
C           -3.68378   1.20837   0.24537
C           -2.63721   1.58100  -0.81274
C           -1.21234   1.28930  -0.31288
Cl           4.16002   0.66868  -0.34258
H            2.16842  -2.57888   0.73113
H            2.74704  -1.36706  -0.24450
H            2.33942  -2.84412  -0.90686
H           -0.03036  -2.46731  -0.36508
H            0.58694  -1.21782  -1.41194
H            1.02498   0.24175   0.60029
H            0.37141  -0.99479   1.63550
H           -1.97088  -1.64374   1.34229
H           -4.13729  -0.47101   1.55623
H           -4.02487  -0.89391  -0.13662
H           -3.54092   1.83646   1.13335
H           -4.69711   1.43513  -0.11393
H           -2.73923   2.63561  -1.10403
H           -2.82722   1.00601  -1.72749
H           -0.88647   2.09100   0.36068
H           -0.50366   1.30526  -1.15089
