26
 xtb: 6.5.1 (fef0646)
N            2.15995592943734       -2.01072703046205       -0.21082091453928
C            0.73236279126175       -1.60211423241826       -0.39933366967075
C            0.30243597502198       -0.56544104981950        0.63537195220287
C           -1.07965377502388       -0.02528913030676        0.41009465249119
C           -2.13945466582793       -0.71056544834505        0.82946503180638
C           -3.55971929143194       -0.27497817895970        0.63808776106400
C           -3.68304367711159        1.20635554069567        0.24433466424824
C           -2.63700340317021        1.58095891638378       -0.81349642064373
C           -1.21180560997181        1.28979424358842       -0.31404524089563
Cl           4.04647648336869        0.53628008811437       -0.33697368420929
H            2.20357783865340       -2.54152173572186        0.72650414670504
H            2.76077329453232       -1.31488353459956       -0.25033158712621
H            2.37357217111625       -2.80324697735980       -0.91136476846650
H           -0.00209875984677       -2.46947530044327       -0.36186366011738
H            0.59028549762125       -1.20901654384968       -1.41037088789602
H            1.02320605383693        0.24836929662458        0.60933689152622
H            0.37060934040988       -0.99477251067268        1.63709796873427
H           -1.96965588154110       -1.64344038549785        1.34248089174188
H           -4.13668651957005       -0.47224159540455        1.55516144452015
H           -4.02360885224042       -0.89440650976026       -0.13785411411735
H           -3.54092150354480        1.83566235968520        1.13326982215037
H           -4.69702207296504        1.43429156766193       -0.11412951507645
H           -2.73944967269080        2.63568890599799       -1.10398431900426
H           -2.82710210276671        1.00619973631083       -1.72782826689840
H           -0.88648652850346        2.09133441595832        0.36028036653488
H           -0.50360161913095        1.30549994156411       -1.15134180594692
