 xtb: 6.5.1 (fef0646)
          01242310033D

 11 10  0     0  0            999 V2000
   -1.2023    0.2413    0.0000 N   0  0  0  0  0  0  0  0  0  0  0  0
    0.0484   -0.5739   -0.0000 C   0  0  0  0  0  0  0  0  0  0  0  0
    1.3148    0.2651   -0.0000 C   0  0  0  0  0  0  0  0  0  0  0  0
   -2.0437   -0.3544    0.0014 H   0  0  0  0  0  0  0  0  0  0  0  0
   -1.2538    0.8461   -0.8321 H   0  0  0  0  0  0  0  0  0  0  0  0
   -1.2525    0.8479    0.8308 H   0  0  0  0  0  0  0  0  0  0  0  0
    0.0363   -1.2400   -0.8762 H   0  0  0  0  0  0  0  0  0  0  0  0
    0.0363   -1.2401    0.8762 H   0  0  0  0  0  0  0  0  0  0  0  0
    1.3627    0.9104   -0.8808 H   0  0  0  0  0  0  0  0  0  0  0  0
    2.2168   -0.3544    0.0013 H   0  0  0  0  0  0  0  0  0  0  0  0
    1.3615    0.9120    0.8796 H   0  0  0  0  0  0  0  0  0  0  0  0
  1  2  1  0  0  0  0
  2  3  1  0  0  0  0
  1  4  1  0  0  0  0
  1  5  1  0  0  0  0
  1  6  1  0  0  0  0
  2  7  1  0  0  0  0
  2  8  1  0  0  0  0
  3  9  1  0  0  0  0
  3 10  1  0  0  0  0
  3 11  1  0  0  0  0
M  CHG  1   1   1
M  END
