 xtb: 6.5.1 (fef0646)
          02032317563D

 11 10  0     0  0            999 V2000
   -1.2023    0.2430    0.0000 N   0  0  0  0  0  0  0  0  0  0  0  0
    0.0486   -0.5761   -0.0000 C   0  0  0  0  0  0  0  0  0  0  0  0
    1.3124    0.2660   -0.0000 C   0  0  0  0  0  0  0  0  0  0  0  0
   -1.2375    0.8413   -0.8278 H   0  0  0  0  0  0  0  0  0  0  0  0
   -1.2384    0.8403    0.8287 H   0  0  0  0  0  0  0  0  0  0  0  0
   -2.0328   -0.3535   -0.0009 H   0  0  0  0  0  0  0  0  0  0  0  0
    0.0370   -1.2395   -0.8760 H   0  0  0  0  0  0  0  0  0  0  0  0
    0.0369   -1.2391    0.8763 H   0  0  0  0  0  0  0  0  0  0  0  0
    1.3535    0.9133    0.8772 H   0  0  0  0  0  0  0  0  0  0  0  0
    1.3577    0.9074   -0.8814 H   0  0  0  0  0  0  0  0  0  0  0  0
    2.2130   -0.3523    0.0046 H   0  0  0  0  0  0  0  0  0  0  0  0
  1  2  1  0  0  0  0
  2  3  1  0  0  0  0
  1  4  1  0  0  0  0
  1  5  1  0  0  0  0
  1  6  1  0  0  0  0
  2  7  1  0  0  0  0
  2  8  1  0  0  0  0
  3  9  1  0  0  0  0
  3 10  1  0  0  0  0
  3 11  1  0  0  0  0
M  CHG  1   1   1
M  END
