21
1.173
N           -3.34955  -1.21594  -0.89978
C           -3.22283   0.20546  -0.42988
C           -2.29719   0.37530   0.78809
C           -0.84609   0.23410   0.45386
C           -0.05953   1.36166   0.23807
F           -0.60637   2.57503   0.30030
C            1.29481   1.23312  -0.06070
F            2.03762   2.31861  -0.25979
C            1.86847  -0.02801  -0.15407
F            3.16389  -0.15284  -0.43645
C            1.08641  -1.15865   0.04136
F            1.62574  -2.36959  -0.07077
C           -0.26760  -1.02467   0.33835
F           -1.02813  -2.11114   0.45077
H           -2.42986  -1.60288  -1.14077
H           -3.95130  -1.28274  -1.72863
H           -3.74964  -1.80718  -0.16279
H           -4.23245   0.57906  -0.19523
H           -2.85098   0.82740  -1.25849
H           -2.55284  -0.36270   1.56138
H           -2.44592   1.36465   1.24902
