27
 xtb: 6.5.1 (fef0646)
N           -3.75337341186601       -0.59352588766278        0.26402562481647
C           -2.66034755018053        0.42276057610207        0.13646480651522
C           -1.44140377003412       -0.06584865419597       -0.66420438932449
C           -0.67158622865729       -1.23196277599403        0.00934295630924
C            0.14041963983913       -0.77782211868349        1.23342792643116
C            1.11729855790789        0.36629592694972        0.87033296197037
C            2.20803067943275       -0.12810268381984       -0.05704500403535
O            2.87251901941721        0.81222401483381       -0.75488337780579
O            2.44350883164808       -1.31055644614847       -0.14111371228696
C            0.35571432764645        1.54757042172666        0.22754713898346
C           -0.46425578774473        1.09676863892228       -0.99414715824069
H           -3.97624813558142       -0.98107843377278       -0.67780116540868
H           -4.61508462497249       -0.15319622091256        0.63623255989897
H           -3.49818640920109       -1.37212754511486        0.88357891839115
H           -2.33394473623498        0.71797040910276        1.15155995558171
H           -3.05583663197131        1.32478866153159       -0.31611436373962
H           -1.84763122575288       -0.45034606051206       -1.62048632514542
H            0.01370554751730       -1.68542141431913       -0.71442732860309
H           -1.36737651453799       -2.03175540342977        0.29116694198168
H            0.71685868669001       -1.61551001644303        1.63339904103632
H           -0.53226990157290       -0.45618042004291        2.03953134950525
H            1.60649064620634        0.72840969783734        1.78436596530431
H            3.56396235596395        0.39897059605174       -1.28310286067535
H            1.07929584670481        2.31394041018861       -0.08895690845769
H           -0.30119482724033        2.02885756727389        0.95064020081630
H            0.22048470516119        0.77173726946083       -1.79716095109654
H           -1.02466046031645        1.93596853934926       -1.42423156356653
