 xtb: 6.5.1 (fef0646)
          01242310043D

 27 27  0     0  0            999 V2000
   -3.7424    0.5841   -0.3707 N   0  0  0  0  0  0  0  0  0  0  0  0
   -2.6684   -0.1440    0.3666 C   0  0  0  0  0  0  0  0  0  0  0  0
   -1.4412   -0.4704   -0.5009 C   0  0  0  0  0  0  0  0  0  0  0  0
   -0.4848   -1.4866    0.1858 C   0  0  0  0  0  0  0  0  0  0  0  0
    0.3160   -0.8596    1.3410 C   0  0  0  0  0  0  0  0  0  0  0  0
    1.1021    0.3859    0.8742 C   0  0  0  0  0  0  0  0  0  0  0  0
    2.1862   -0.0154   -0.0980 C   0  0  0  0  0  0  0  0  0  0  0  0
    3.4598    0.2349    0.2571 O   0  0  0  0  0  0  0  0  0  0  0  0
    1.8690   -0.5382   -1.1397 O   0  0  0  0  0  0  0  0  0  0  0  0
    0.1542    1.4175    0.2210 C   0  0  0  0  0  0  0  0  0  0  0  0
   -0.6483    0.7930   -0.9345 C   0  0  0  0  0  0  0  0  0  0  0  0
   -4.0561    0.0503   -1.1949 H   0  0  0  0  0  0  0  0  0  0  0  0
   -3.4266    1.5077   -0.7006 H   0  0  0  0  0  0  0  0  0  0  0  0
   -4.5702    0.7412    0.2242 H   0  0  0  0  0  0  0  0  0  0  0  0
   -3.0879   -1.0743    0.7675 H   0  0  0  0  0  0  0  0  0  0  0  0
   -2.3615    0.4403    1.2395 H   0  0  0  0  0  0  0  0  0  0  0  0
   -1.8266   -0.9482   -1.4180 H   0  0  0  0  0  0  0  0  0  0  0  0
    0.2219   -1.8756   -0.5597 H   0  0  0  0  0  0  0  0  0  0  0  0
   -1.0520   -2.3563    0.5401 H   0  0  0  0  0  0  0  0  0  0  0  0
    1.0178   -1.5949    1.7569 H   0  0  0  0  0  0  0  0  0  0  0  0
   -0.3570   -0.5925    2.1635 H   0  0  0  0  0  0  0  0  0  0  0  0
    1.6070    0.8470    1.7391 H   0  0  0  0  0  0  0  0  0  0  0  0
    4.0510   -0.0719   -0.4518 H   0  0  0  0  0  0  0  0  0  0  0  0
    0.7448    2.2675   -0.1460 H   0  0  0  0  0  0  0  0  0  0  0  0
   -0.5262    1.8319    0.9732 H   0  0  0  0  0  0  0  0  0  0  0  0
    0.0519    0.5173   -1.7347 H   0  0  0  0  0  0  0  0  0  0  0  0
   -1.3238    1.5339   -1.3772 H   0  0  0  0  0  0  0  0  0  0  0  0
  1  2  1  0  0  0  0
  2  3  1  0  0  0  0
  3  4  1  0  0  0  0
  4  5  1  0  0  0  0
  5  6  1  0  0  0  0
  6  7  1  0  0  0  0
  7  8  1  0  0  0  0
  7  9  2  0  0  0  0
  6 10  1  0  0  0  0
  3 11  1  0  0  0  0
 10 11  1  0  0  0  0
  1 12  1  0  0  0  0
  1 13  1  0  0  0  0
  1 14  1  0  0  0  0
  2 15  1  0  0  0  0
  2 16  1  0  0  0  0
  3 17  1  0  0  0  0
  4 18  1  0  0  0  0
  4 19  1  0  0  0  0
  5 20  1  0  0  0  0
  5 21  1  0  0  0  0
  6 22  1  0  0  0  0
  8 23  1  0  0  0  0
 10 24  1  0  0  0  0
 10 25  1  0  0  0  0
 11 26  1  0  0  0  0
 11 27  1  0  0  0  0
M  CHG  1   1   1
M  END
