39
 xtb: 6.5.1 (fef0646)
N            6.57791843430443        0.77550272855582        2.72188961458397
C            7.35850130727778        1.23743475689813        1.53929857787725
C            7.38383243013661        0.21331814931191        0.40300310105704
C            6.06927008985685        0.03284868089181       -0.27724189720865
C            5.88612316436455       -0.28852483770742       -1.59399499816751
C            4.53332191795290       -0.40482759027515       -1.97997119549648
C            3.63705131763077       -0.17497179760790       -0.95705080863929
C            2.21578591473547       -0.21882166322568       -1.03807697670267
C            1.45861863129252       -0.48723119523630       -2.17032115061235
C            0.08278032897974       -0.46520106625652       -1.95160753607226
C           -0.27768959699706       -0.18027943022790       -0.64149648121726
C           -1.60071410682529       -0.10001362404581       -0.14128163063448
C           -1.95919972740347        0.16513018413273        1.17381481183642
C           -3.33495896472527        0.18553066414105        1.39312946493253
C           -4.09228445481884       -0.06018756631474        0.25700579939852
C           -5.51390170809222       -0.08982093368240        0.19422212271031
C           -6.27346680100092       -0.29201789513227       -0.93936010088605
C           -7.66301216087415       -0.27544650662714       -0.70102261685335
C           -7.98799293308974       -0.06589823386044        0.60523208622869
S           -6.57342314173894        0.07940451863889        1.57123028235006
S           -3.03627297574646       -0.30690168045769       -1.09706935482039
S            1.15673581014281        0.05801268808490        0.30748557060866
S            4.53222697605299        0.20417356211267        0.48650562777608
H            5.61075259480965        0.53472102907045        2.45183721359772
H            6.54640713301254        1.45230037679384        3.48051385836611
H            6.98309389425964       -0.11585162328691        3.12181180881214
H            8.38667735615209        1.44548731916350        1.87497664331898
H            6.94733732467952        2.16595284704788        1.18942717987095
H            7.70816155371601       -0.76987994876281        0.78556828637296
H            8.13222488559287        0.49568457314727       -0.34253703567867
H            6.70788616580801       -0.40763586672043       -2.28521994428399
H            4.22697315999828       -0.61184305261230       -2.99489733653075
H            1.89698633090953       -0.68000758788678       -3.13758272916432
H           -0.64662850489584       -0.64288201375098       -2.72747018506617
H           -1.23051380415195        0.36635861729861        1.94383954300051
H           -3.78191642457790        0.40092824815419        2.35185625437720
H           -5.83546269988689       -0.53840505673245       -1.89558679284915
H           -8.39636162862207       -0.50391360295147       -1.46298825352978
H           -8.98650005312899       -0.01277699008528        0.99988763182403
