39
 xtb: 6.5.1 (fef0646)
N           -6.69573585944817       -2.49547965955800       -0.67745403262074
C           -7.41279859619951       -1.25179937436412       -1.09423957353805
C           -7.38999883836925       -0.16129283421871       -0.01939779833599
C           -6.05291556577986        0.47252489597747        0.15381137917880
C           -5.81767272917740        1.76905303792122        0.51383461290129
C           -4.45172561409995        2.10607350942175        0.61056907952708
C           -3.59443746895677        1.06489588053526        0.32682702570384
C           -2.17369166152509        1.09623154452124        0.33942300867075
C           -1.37064435969380        2.18697253273091        0.64205783565971
C           -0.00631710034181        1.92512287192844        0.57182267943404
C            0.30356502689528        0.62103747946712        0.21180313054904
C            1.60427648440778        0.08739718833799        0.06222944385818
C            1.91287169866334       -1.21444162723536       -0.30810519335236
C            3.27718174774175       -1.47419594015065       -0.38391757250502
C            4.07943219263427       -0.38620064356458       -0.07434521818326
C            5.49990110114485       -0.37450850868516       -0.06996282966413
C            6.30024365366944        0.69600279272501        0.26365597355525
C            7.67879188661398        0.42307150307216        0.17526438030592
C            7.95766271921070       -0.84660937462121       -0.22505608591406
S            6.51002109614567       -1.72693100051632       -0.52274686374110
S            3.07842995437582        0.97714782902116        0.32300007570052
S           -1.16959743559360       -0.27148415691860       -0.03495082012087
S           -4.54281188121653       -0.33919867215884       -0.06828487873208
H           -6.65805277375940       -3.16820477281229       -1.47548525086380
H           -7.13115029276373       -2.93220324949287        0.10433412443328
H           -5.72408798461701       -2.25022827545239       -0.44854606251439
H           -8.46354202987927       -1.51166663270278       -1.33621252946957
H           -7.00040173734992       -0.84543036353355       -2.02523358115537
H           -7.70471356119089       -0.58541915232349        0.93887701230035
H           -8.11974318909466        0.62399995713037       -0.25097590365028
H           -6.61146951921878        2.46874568059378        0.71761059559856
H           -4.10843556077439        3.08630227089727        0.89707076322470
H           -1.77033849540839        3.14753050438426        0.92206575479629
H            0.75165707715670        2.65975518530340        0.78976454898849
H            1.15539853370491       -1.95623279116391       -0.50323121429214
H            3.68557156433449       -2.43724092601550       -0.64705611249974
H            5.89945836708677        1.66879950072043        0.50543141177113
H            8.43984822064733        1.17139023547076        0.34758887670003
H            8.94118444841374       -1.25682283152718       -0.35293641825957
