 xtb: 6.5.1 (fef0646)
          01242317063D

 39 42  0     0  0            999 V2000
   -6.6880   -2.4798   -0.7201 N   0  0  0  0  0  0  0  0  0  0  0  0
   -7.4321   -1.2430   -1.0998 C   0  0  0  0  0  0  0  0  0  0  0  0
   -7.3904   -0.1596   -0.0191 C   0  0  0  0  0  0  0  0  0  0  0  0
   -6.0520    0.4709    0.1519 C   0  0  0  0  0  0  0  0  0  0  0  0
   -5.8167    1.7650    0.5210 C   0  0  0  0  0  0  0  0  0  0  0  0
   -4.4510    2.1009    0.6220 C   0  0  0  0  0  0  0  0  0  0  0  0
   -3.5940    1.0610    0.3323 C   0  0  0  0  0  0  0  0  0  0  0  0
   -2.1733    1.0922    0.3476 C   0  0  0  0  0  0  0  0  0  0  0  0
   -1.3707    2.1812    0.6574 C   0  0  0  0  0  0  0  0  0  0  0  0
   -0.0063    1.9201    0.5862 C   0  0  0  0  0  0  0  0  0  0  0  0
    0.3040    0.6181    0.2191 C   0  0  0  0  0  0  0  0  0  0  0  0
    1.6048    0.0853    0.0681 C   0  0  0  0  0  0  0  0  0  0  0  0
    1.9137   -1.2185   -0.2950 C   0  0  0  0  0  0  0  0  0  0  0  0
    3.2781   -1.4772   -0.3730 C   0  0  0  0  0  0  0  0  0  0  0  0
    4.0799   -0.3860   -0.0743 C   0  0  0  0  0  0  0  0  0  0  0  0
    5.5003   -0.3711   -0.0795 C   0  0  0  0  0  0  0  0  0  0  0  0
    6.3000    0.7109    0.2134 C   0  0  0  0  0  0  0  0  0  0  0  0
    7.6786    0.4377    0.1277 C   0  0  0  0  0  0  0  0  0  0  0  0
    7.9583   -0.8442   -0.2280 C   0  0  0  0  0  0  0  0  0  0  0  0
    6.5121   -1.7412   -0.4647 S   0  0  0  0  0  0  0  0  0  0  0  0
    3.0785    0.9802    0.3119 S   0  0  0  0  0  0  0  0  0  0  0  0
   -1.1684   -0.2742   -0.0329 S   0  0  0  0  0  0  0  0  0  0  0  0
   -4.5421   -0.3420   -0.0698 S   0  0  0  0  0  0  0  0  0  0  0  0
   -6.6991   -3.1798   -1.4717 H   0  0  0  0  0  0  0  0  0  0  0  0
   -7.0922   -2.9059    0.1218 H   0  0  0  0  0  0  0  0  0  0  0  0
   -5.7099   -2.2512   -0.5122 H   0  0  0  0  0  0  0  0  0  0  0  0
   -8.4706   -1.5120   -1.3274 H   0  0  0  0  0  0  0  0  0  0  0  0
   -7.0168   -0.8405   -2.0308 H   0  0  0  0  0  0  0  0  0  0  0  0
   -7.7030   -0.5869    0.9388 H   0  0  0  0  0  0  0  0  0  0  0  0
   -8.1199    0.6255   -0.2474 H   0  0  0  0  0  0  0  0  0  0  0  0
   -6.6112    2.4672    0.7207 H   0  0  0  0  0  0  0  0  0  0  0  0
   -4.1082    3.0841    0.9027 H   0  0  0  0  0  0  0  0  0  0  0  0
   -1.7705    3.1453    0.9283 H   0  0  0  0  0  0  0  0  0  0  0  0
    0.7516    2.6579    0.7956 H   0  0  0  0  0  0  0  0  0  0  0  0
    1.1557   -1.9580   -0.4975 H   0  0  0  0  0  0  0  0  0  0  0  0
    3.6859   -2.4384   -0.6426 H   0  0  0  0  0  0  0  0  0  0  0  0
    5.8992    1.6755    0.4822 H   0  0  0  0  0  0  0  0  0  0  0  0
    8.4397    1.1779    0.3260 H   0  0  0  0  0  0  0  0  0  0  0  0
    8.9414   -1.2572   -0.3494 H   0  0  0  0  0  0  0  0  0  0  0  0
  1  2  1  0  0  0  0
  2  3  1  0  0  0  0
  3  4  1  0  0  0  0
  4  5  2  0  0  0  0
  5  6  4  0  0  0  0
  6  7  4  0  0  0  0
  7  8  1  0  0  0  0
  8  9  4  0  0  0  0
  9 10  4  0  0  0  0
 10 11  4  0  0  0  0
 11 12  4  0  0  0  0
 12 13  4  0  0  0  0
 13 14  4  0  0  0  0
 14 15  4  0  0  0  0
 15 16  1  0  0  0  0
 16 17  4  0  0  0  0
 17 18  4  0  0  0  0
 18 19  2  0  0  0  0
 16 20  1  0  0  0  0
 19 20  1  0  0  0  0
 12 21  1  0  0  0  0
 15 21  1  0  0  0  0
  8 22  1  0  0  0  0
 11 22  1  0  0  0  0
  4 23  1  0  0  0  0
  7 23  1  0  0  0  0
  1 24  1  0  0  0  0
  1 25  1  0  0  0  0
  1 26  1  0  0  0  0
  2 27  1  0  0  0  0
  2 28  1  0  0  0  0
  3 29  1  0  0  0  0
  3 30  1  0  0  0  0
  5 31  1  0  0  0  0
  6 32  1  0  0  0  0
  9 33  1  0  0  0  0
 10 34  1  0  0  0  0
 13 35  1  0  0  0  0
 14 36  1  0  0  0  0
 17 37  1  0  0  0  0
 18 38  1  0  0  0  0
 19 39  1  0  0  0  0
M  CHG  1   1   1
M  END
