24
1.243
N           -1.04707  -1.01142   1.25579
C           -0.92975  -2.01859   0.15953
C           -0.23151  -1.47712  -1.09276
C            1.29401  -1.62977  -1.09319
C            2.03369  -0.83908  -0.01160
C            1.82421   0.67379  -0.10117
C            2.61124   1.43951   0.95219
Cl          -2.18353   1.97077  -0.15684
H           -1.48179  -0.14402   0.90442
H           -0.12722  -0.75154   1.63532
H           -1.61966  -1.35635   2.04349
H           -1.94058  -2.36168  -0.09852
H           -0.40884  -2.91268   0.52160
H           -0.50234  -0.42439  -1.22922
H           -0.63640  -1.98295  -1.98036
H            1.68753  -1.32911  -2.07309
H            1.54211  -2.69523  -1.00347
H            3.10974  -1.04976  -0.07013
H            1.74099  -1.19773   0.98099
H            0.75626   0.90640  -0.00892
H            2.10220   1.01857  -1.10571
H            3.68304   1.25664   0.85535
H            2.32333   1.13440   1.95990
H            2.45475   2.51811   0.87882
