24
 xtb: 6.5.1 (fef0646)
N           -0.99361760778472       -1.11360751075278        1.30900920031642
C           -0.89066941212953       -2.08366199217225        0.17952044361073
C           -0.22933490055662       -1.49989219173497       -1.07495446943610
C            1.29875298297435       -1.62799522018869       -1.11141328674401
C            2.04963248057584       -0.84782058775520       -0.02974862120447
C            1.81961792127557        0.66414916188787       -0.08744792225937
C            2.61169446980095        1.41976187424399        0.96950695416450
Cl          -2.26399040807583        2.13442767698268       -0.22014183613227
H           -1.47439979836649       -0.17266200513489        0.92823067161496
H           -0.11115114545631       -0.77702094745818        1.64458452271887
H           -1.59756059873272       -1.39274478295478        2.05975716043508
H           -1.92942904931637       -2.38332999570023       -0.08834968222603
H           -0.39104179573049       -2.93172232713102        0.51744245329571
H           -0.50746407423114       -0.43133157172426       -1.21609069142313
H           -0.63870920323194       -1.98563935839189       -1.97608850532163
H            1.68141668291833       -1.32097020673409       -2.07899616441043
H            1.54894611599030       -2.69411492048871       -1.01668984991455
H            3.11478514426014       -1.04790065976118       -0.08279947335403
H            1.75297686223012       -1.20671592403114        0.97557651985899
H            0.75449957323591        0.89965514975450        0.00013794851848
H            2.09560912142434        1.02234731181631       -1.10092470885319
H            3.68346404442529        1.25560110929355        0.85472741620950
H            2.32906657270136        1.12201129553444        1.96448142227394
H            2.45043522124450        2.51217715959194        0.89040692823344
