 xtb: 6.5.1 (fef0646)
          02032320253D

 27 27  0     0  0            999 V2000
   -3.4838   -0.3362    0.7333 N   0  0  0  0  0  0  0  0  0  0  0  0
   -2.3210   -0.5919   -0.1695 C   0  0  0  0  0  0  0  0  0  0  0  0
   -1.1800    0.3935    0.0549 C   0  0  0  0  0  0  0  0  0  0  0  0
    0.0013    0.2288   -0.9221 C   0  0  0  0  0  0  0  0  0  0  0  0
    0.7431   -1.1254   -0.7616 C   0  0  0  0  0  0  0  0  0  0  0  0
    1.5669   -1.1921    0.5361 C   0  0  0  0  0  0  0  0  0  0  0  0
    2.5609   -0.0223    0.6255 C   0  0  0  0  0  0  0  0  0  0  0  0
    1.8414    1.3302    0.4926 C   0  0  0  0  0  0  0  0  0  0  0  0
    1.0133    1.4004   -0.8029 C   0  0  0  0  0  0  0  0  0  0  0  0
   -3.8571    0.6063    0.5836 H   0  0  0  0  0  0  0  0  0  0  0  0
   -3.2010   -0.4096    1.7156 H   0  0  0  0  0  0  0  0  0  0  0  0
   -4.2413   -1.0072    0.5693 H   0  0  0  0  0  0  0  0  0  0  0  0
   -2.6538   -0.5413   -1.2121 H   0  0  0  0  0  0  0  0  0  0  0  0
   -1.9697   -1.6182   -0.0200 H   0  0  0  0  0  0  0  0  0  0  0  0
   -0.8199    0.3078    1.0832 H   0  0  0  0  0  0  0  0  0  0  0  0
   -1.5720    1.4124   -0.0251 H   0  0  0  0  0  0  0  0  0  0  0  0
   -0.4234    0.2573   -1.9398 H   0  0  0  0  0  0  0  0  0  0  0  0
    1.4122   -1.2743   -1.6167 H   0  0  0  0  0  0  0  0  0  0  0  0
    0.0311   -1.9569   -0.8055 H   0  0  0  0  0  0  0  0  0  0  0  0
    2.0961   -2.1515    0.6058 H   0  0  0  0  0  0  0  0  0  0  0  0
    0.8965   -1.1701    1.4020 H   0  0  0  0  0  0  0  0  0  0  0  0
    3.3062   -0.1171   -0.1723 H   0  0  0  0  0  0  0  0  0  0  0  0
    3.1283   -0.0679    1.5642 H   0  0  0  0  0  0  0  0  0  0  0  0
    2.5656    2.1546    0.5295 H   0  0  0  0  0  0  0  0  0  0  0  0
    1.1872    1.4829    1.3578 H   0  0  0  0  0  0  0  0  0  0  0  0
    1.6899    1.3887   -1.6644 H   0  0  0  0  0  0  0  0  0  0  0  0
    0.4802    2.3567   -0.8612 H   0  0  0  0  0  0  0  0  0  0  0  0
  1  2  1  0  0  0  0
  2  3  1  0  0  0  0
  3  4  1  0  0  0  0
  4  5  1  0  0  0  0
  5  6  1  0  0  0  0
  6  7  1  0  0  0  0
  7  8  1  0  0  0  0
  4  9  1  0  0  0  0
  8  9  1  0  0  0  0
  1 10  1  0  0  0  0
  1 11  1  0  0  0  0
  1 12  1  0  0  0  0
  2 13  1  0  0  0  0
  2 14  1  0  0  0  0
  3 15  1  0  0  0  0
  3 16  1  0  0  0  0
  4 17  1  0  0  0  0
  5 18  1  0  0  0  0
  5 19  1  0  0  0  0
  6 20  1  0  0  0  0
  6 21  1  0  0  0  0
  7 22  1  0  0  0  0
  7 23  1  0  0  0  0
  8 24  1  0  0  0  0
  8 25  1  0  0  0  0
  9 26  1  0  0  0  0
  9 27  1  0  0  0  0
M  CHG  1   1   1
M  END
