 xtb: 6.5.1 (fef0646)
          01242314553D

 25 25  0     0  0            999 V2000
    0.9951    0.1155   -0.0318 N   0  0  0  0  0  0  0  0  0  0  0  0
    2.3721   -0.4152    0.0917 C   0  0  0  0  0  0  0  0  0  0  0  0
    2.9391   -0.1726    1.4659 C   0  0  0  0  0  0  0  0  0  0  0  0
    3.5139   -1.2388    2.1845 C   0  0  0  0  0  0  0  0  0  0  0  0
    4.0360   -1.0412    3.4314 C   0  0  0  0  0  0  0  0  0  0  0  0
    2.9051    1.0799    2.0246 C   0  0  0  0  0  0  0  0  0  0  0  0
    3.4274    1.3130    3.3123 C   0  0  0  0  0  0  0  0  0  0  0  0
    4.0048    0.2342    4.0327 C   0  0  0  0  0  0  0  0  0  0  0  0
    4.5250    0.4740    5.3216 C   0  0  0  0  0  0  0  0  0  0  0  0
    4.4761    1.7242    5.8717 C   0  0  0  0  0  0  0  0  0  0  0  0
    3.9053    2.7921    5.1593 C   0  0  0  0  0  0  0  0  0  0  0  0
    3.3927    2.5914    3.9086 C   0  0  0  0  0  0  0  0  0  0  0  0
    0.8676    3.1700   -0.2724 Cl  0  0  0  0  0  0  0  0  0  0  0  0
    0.5687   -0.1820   -0.9126 H   0  0  0  0  0  0  0  0  0  0  0  0
    0.9901    1.1661   -0.0416 H   0  0  0  0  0  0  0  0  0  0  0  0
    0.4142   -0.1892    0.7532 H   0  0  0  0  0  0  0  0  0  0  0  0
    2.9961    0.0857   -0.6510 H   0  0  0  0  0  0  0  0  0  0  0  0
    2.3640   -1.4864   -0.1135 H   0  0  0  0  0  0  0  0  0  0  0  0
    3.5439   -2.2214    1.7388 H   0  0  0  0  0  0  0  0  0  0  0  0
    4.4772   -1.8607    3.9795 H   0  0  0  0  0  0  0  0  0  0  0  0
    2.4748    1.9127    1.4871 H   0  0  0  0  0  0  0  0  0  0  0  0
    4.9633   -0.3492    5.8674 H   0  0  0  0  0  0  0  0  0  0  0  0
    4.8755    1.9029    6.8591 H   0  0  0  0  0  0  0  0  0  0  0  0
    3.8750    3.7734    5.6101 H   0  0  0  0  0  0  0  0  0  0  0  0
    2.9502    3.4069    3.3532 H   0  0  0  0  0  0  0  0  0  0  0  0
  1  2  1  0  0  0  0
  2  3  1  0  0  0  0
  3  4  4  0  0  0  0
  4  5  2  0  0  0  0
  3  6  2  0  0  0  0
  6  7  4  0  0  0  0
  5  8  4  0  0  0  0
  7  8  4  0  0  0  0
  8  9  4  0  0  0  0
  9 10  2  0  0  0  0
 10 11  4  0  0  0  0
  7 12  4  0  0  0  0
 11 12  2  0  0  0  0
  1 14  1  0  0  0  0
  1 15  1  0  0  0  0
  1 16  1  0  0  0  0
  2 17  1  0  0  0  0
  2 18  1  0  0  0  0
  4 19  1  0  0  0  0
  5 20  1  0  0  0  0
  6 21  1  0  0  0  0
  9 22  1  0  0  0  0
 10 23  1  0  0  0  0
 11 24  1  0  0  0  0
 12 25  1  0  0  0  0
M  END
