 xtb: 6.5.1 (fef0646)
          01232320123D

 23 22  0     0  0            999 V2000
    0.9265   -0.0502    0.0747 N   0  0  0  0  0  0  0  0  0  0  0  0
    2.4259   -0.0356    0.0854 C   0  0  0  0  0  0  0  0  0  0  0  0
    2.9419    1.1888    0.8255 C   0  0  0  0  0  0  0  0  0  0  0  0
    4.4734    1.2123    0.8401 C   0  0  0  0  0  0  0  0  0  0  0  0
    5.0067    2.4378    1.5807 C   0  0  0  0  0  0  0  0  0  0  0  0
    6.5338    2.4696    1.5999 C   0  0  0  0  0  0  0  0  0  0  0  0
    7.0566    3.6943    2.3399 C   0  0  0  0  0  0  0  0  0  0  0  0
    0.5594   -0.8716   -0.4218 H   0  0  0  0  0  0  0  0  0  0  0  0
    0.5761    0.8011   -0.3846 H   0  0  0  0  0  0  0  0  0  0  0  0
    0.5742   -0.0597    1.0411 H   0  0  0  0  0  0  0  0  0  0  0  0
    2.7775   -0.0320   -0.9471 H   0  0  0  0  0  0  0  0  0  0  0  0
    2.7755   -0.9482    0.5699 H   0  0  0  0  0  0  0  0  0  0  0  0
    2.5813    1.1831    1.8560 H   0  0  0  0  0  0  0  0  0  0  0  0
    2.5817    2.0985    0.3411 H   0  0  0  0  0  0  0  0  0  0  0  0
    4.8472    1.2208   -0.1848 H   0  0  0  0  0  0  0  0  0  0  0  0
    4.8469    0.3088    1.3244 H   0  0  0  0  0  0  0  0  0  0  0  0
    4.6363    2.4321    2.6078 H   0  0  0  0  0  0  0  0  0  0  0  0
    4.6363    3.3444    1.0980 H   0  0  0  0  0  0  0  0  0  0  0  0
    6.9082    2.4774    0.5745 H   0  0  0  0  0  0  0  0  0  0  0  0
    6.9082    1.5655    2.0838 H   0  0  0  0  0  0  0  0  0  0  0  0
    6.7114    4.6076    1.8612 H   0  0  0  0  0  0  0  0  0  0  0  0
    8.1428    3.6991    2.3427 H   0  0  0  0  0  0  0  0  0  0  0  0
    6.7116    3.6953    3.3711 H   0  0  0  0  0  0  0  0  0  0  0  0
  1  2  1  0  0  0  0
  2  3  1  0  0  0  0
  3  4  1  0  0  0  0
  4  5  1  0  0  0  0
  5  6  1  0  0  0  0
  6  7  1  0  0  0  0
  1  8  1  0  0  0  0
  1  9  1  0  0  0  0
  1 10  1  0  0  0  0
  2 11  1  0  0  0  0
  2 12  1  0  0  0  0
  3 13  1  0  0  0  0
  3 14  1  0  0  0  0
  4 15  1  0  0  0  0
  4 16  1  0  0  0  0
  5 17  1  0  0  0  0
  5 18  1  0  0  0  0
  6 19  1  0  0  0  0
  6 20  1  0  0  0  0
  7 21  1  0  0  0  0
  7 22  1  0  0  0  0
  7 23  1  0  0  0  0
M  CHG  1   1   1
M  END
