 xtb: 6.5.1 (fef0646)
          01242316083D

 23 22  0     0  0            999 V2000
    0.9467    0.0464   -0.0725 N   0  0  0  0  0  0  0  0  0  0  0  0
    2.4303    0.0387   -0.0815 C   0  0  0  0  0  0  0  0  0  0  0  0
    2.9553   -1.0118   -1.0536 C   0  0  0  0  0  0  0  0  0  0  0  0
    4.4834   -1.0297   -1.0710 C   0  0  0  0  0  0  0  0  0  0  0  0
    5.0195   -2.0807   -2.0413 C   0  0  0  0  0  0  0  0  0  0  0  0
    6.5459   -2.1103   -2.0694 C   0  0  0  0  0  0  0  0  0  0  0  0
    7.0713   -3.1619   -3.0400 C   0  0  0  0  0  0  0  0  0  0  0  0
    0.5894    0.7487    0.5849 H   0  0  0  0  0  0  0  0  0  0  0  0
    0.5910   -0.8764    0.2038 H   0  0  0  0  0  0  0  0  0  0  0  0
    0.5900    0.2599   -1.0114 H   0  0  0  0  0  0  0  0  0  0  0  0
    2.7938   -0.1767    0.9230 H   0  0  0  0  0  0  0  0  0  0  0  0
    2.7917    1.0242   -0.3748 H   0  0  0  0  0  0  0  0  0  0  0  0
    2.6015   -0.8028   -2.0639 H   0  0  0  0  0  0  0  0  0  0  0  0
    2.6024   -2.0029   -0.7657 H   0  0  0  0  0  0  0  0  0  0  0  0
    4.8641   -1.2449   -0.0707 H   0  0  0  0  0  0  0  0  0  0  0  0
    4.8634   -0.0497   -1.3655 H   0  0  0  0  0  0  0  0  0  0  0  0
    4.6526   -1.8726   -3.0490 H   0  0  0  0  0  0  0  0  0  0  0  0
    4.6533   -3.0686   -1.7530 H   0  0  0  0  0  0  0  0  0  0  0  0
    6.9259   -2.3246   -1.0679 H   0  0  0  0  0  0  0  0  0  0  0  0
    6.9253   -1.1290   -2.3635 H   0  0  0  0  0  0  0  0  0  0  0  0
    6.7263   -4.1537   -2.7552 H   0  0  0  0  0  0  0  0  0  0  0  0
    8.1589   -3.1691   -3.0472 H   0  0  0  0  0  0  0  0  0  0  0  0
    6.7256   -2.9577   -4.0513 H   0  0  0  0  0  0  0  0  0  0  0  0
  1  2  1  0  0  0  0
  2  3  1  0  0  0  0
  3  4  1  0  0  0  0
  4  5  1  0  0  0  0
  5  6  1  0  0  0  0
  6  7  1  0  0  0  0
  1  8  1  0  0  0  0
  1  9  1  0  0  0  0
  1 10  1  0  0  0  0
  2 11  1  0  0  0  0
  2 12  1  0  0  0  0
  3 13  1  0  0  0  0
  3 14  1  0  0  0  0
  4 15  1  0  0  0  0
  4 16  1  0  0  0  0
  5 17  1  0  0  0  0
  5 18  1  0  0  0  0
  6 19  1  0  0  0  0
  6 20  1  0  0  0  0
  7 21  1  0  0  0  0
  7 22  1  0  0  0  0
  7 23  1  0  0  0  0
M  CHG  1   1   1
M  END
