  21

 N          0.9733752433       -0.2504159633       -0.2423911004
 C          2.4464706963       -0.2537755983       -0.1418164700
 C          3.0492995727       -1.3991660835       -0.9478803743
 C          4.5737895604       -1.3883937266       -0.8512674791
 C          5.1905452228       -2.5545717282       -1.6216933488
 C          6.6977227479       -2.5298692238       -1.5763034401
 O          7.3153132147       -3.5569373962       -2.1653680153
 O          7.3502542394       -1.6542307873       -1.0571855026
 Cl        -0.1369082787        1.9393800988        1.5540030856
 H          0.5713964017        0.5142142378        0.3582580225
 H          0.5827220726       -1.1355293001        0.0896652178
 H          0.6698741936       -0.0836611355       -1.2045159941
 H          2.7199421121       -0.3422291272        0.9092131770
 H          2.8215496904        0.7041465940       -0.5006085093
 H          2.7600551399       -1.3065339959       -1.9952270294
 H          2.6771622894       -2.3510854502       -0.5673515503
 H          4.8844440925       -1.4483425840        0.1928550897
 H          4.9711867907       -0.4525017172       -1.2466106795
 H          4.8860291766       -2.5106038619       -2.6703983648
 H          4.8467993580       -3.5036290279       -1.2045825189
 H          6.7077164639       -4.2113042236       -2.5562142158
