 xtb: 6.5.1 (fef0646)
          01242317093D

 18 16  0     0  0            999 V2000
   -0.5691    1.1442   -0.9148 N   0  0  0  0  0  0  0  0  0  0  0  0
   -0.0665    1.6798    0.3790 C   0  0  0  0  0  0  0  0  0  0  0  0
    0.2207    0.5748    1.3972 C   0  0  0  0  0  0  0  0  0  0  0  0
    0.9242   -0.6436    0.7982 C   0  0  0  0  0  0  0  0  0  0  0  0
    2.1436   -0.2741   -0.0015 C   0  0  0  0  0  0  0  0  0  0  0  0
    2.0430   -0.4093   -1.3466 O   0  0  0  0  0  0  0  0  0  0  0  0
    3.1350    0.1341    0.5623 O   0  0  0  0  0  0  0  0  0  0  0  0
   -3.2744   -0.9566   -0.1947 Cl  0  0  0  0  0  0  0  0  0  0  0  0
   -0.8082    1.8879   -1.5879 H   0  0  0  0  0  0  0  0  0  0  0  0
   -1.3995    0.5515   -0.7679 H   0  0  0  0  0  0  0  0  0  0  0  0
    0.1759    0.5572   -1.3245 H   0  0  0  0  0  0  0  0  0  0  0  0
   -0.7801    2.4056    0.7874 H   0  0  0  0  0  0  0  0  0  0  0  0
    0.8522    2.2472    0.1854 H   0  0  0  0  0  0  0  0  0  0  0  0
   -0.7178    0.2562    1.8662 H   0  0  0  0  0  0  0  0  0  0  0  0
    0.8314    0.9802    2.2128 H   0  0  0  0  0  0  0  0  0  0  0  0
    0.2396   -1.1916    0.1444 H   0  0  0  0  0  0  0  0  0  0  0  0
    1.2173   -1.3480    1.5828 H   0  0  0  0  0  0  0  0  0  0  0  0
    2.8876   -0.1622   -1.7479 H   0  0  0  0  0  0  0  0  0  0  0  0
  1  2  1  0  0  0  0
  2  3  1  0  0  0  0
  3  4  1  0  0  0  0
  4  5  1  0  0  0  0
  5  6  1  0  0  0  0
  5  7  2  0  0  0  0
  1  9  1  0  0  0  0
  1 10  1  0  0  0  0
  1 11  1  0  0  0  0
  2 12  1  0  0  0  0
  2 13  1  0  0  0  0
  3 14  1  0  0  0  0
  3 15  1  0  0  0  0
  4 16  1  0  0  0  0
  4 17  1  0  0  0  0
  6 18  1  0  0  0  0
M  END
