 xtb: 6.5.1 (fef0646)
          01242310033D

 25 25  0     0  0            999 V2000
   -3.0953    0.6432    1.0438 N   0  0  0  0  0  0  0  0  0  0  0  0
   -1.9704    1.5931    1.2505 C   0  0  0  0  0  0  0  0  0  0  0  0
   -0.6796    1.0397    0.7372 C   0  0  0  0  0  0  0  0  0  0  0  0
   -0.2725    1.3003   -0.5840 C   0  0  0  0  0  0  0  0  0  0  0  0
    0.8790    0.7649   -1.0843 C   0  0  0  0  0  0  0  0  0  0  0  0
    0.0879    0.2211    1.5240 C   0  0  0  0  0  0  0  0  0  0  0  0
    1.2869   -0.3484    1.0403 C   0  0  0  0  0  0  0  0  0  0  0  0
    1.6906   -0.0709   -0.2864 C   0  0  0  0  0  0  0  0  0  0  0  0
    2.8892   -0.6417   -0.7705 C   0  0  0  0  0  0  0  0  0  0  0  0
    3.6470   -1.4488    0.0279 C   0  0  0  0  0  0  0  0  0  0  0  0
    3.2468   -1.7244    1.3410 C   0  0  0  0  0  0  0  0  0  0  0  0
    2.0943   -1.1890    1.8392 C   0  0  0  0  0  0  0  0  0  0  0  0
   -3.1271   -0.1514   -2.3435 Cl  0  0  0  0  0  0  0  0  0  0  0  0
   -4.0016    1.0283    1.3576 H   0  0  0  0  0  0  0  0  0  0  0  0
   -2.9297   -0.2417    1.5565 H   0  0  0  0  0  0  0  0  0  0  0  0
   -3.1793    0.4010    0.0428 H   0  0  0  0  0  0  0  0  0  0  0  0
   -1.8716    1.8338    2.3154 H   0  0  0  0  0  0  0  0  0  0  0  0
   -2.1865    2.5444    0.7502 H   0  0  0  0  0  0  0  0  0  0  0  0
   -0.8905    1.9292   -1.2039 H   0  0  0  0  0  0  0  0  0  0  0  0
    1.1808    0.9724   -2.0978 H   0  0  0  0  0  0  0  0  0  0  0  0
   -0.2291    0.0009    2.5294 H   0  0  0  0  0  0  0  0  0  0  0  0
    3.1970   -0.4303   -1.7814 H   0  0  0  0  0  0  0  0  0  0  0  0
    4.5602   -1.8789   -0.3524 H   0  0  0  0  0  0  0  0  0  0  0  0
    3.8553   -2.3646    1.9604 H   0  0  0  0  0  0  0  0  0  0  0  0
    1.7864   -1.4016    2.8498 H   0  0  0  0  0  0  0  0  0  0  0  0
  1  2  1  0  0  0  0
  2  3  1  0  0  0  0
  3  4  4  0  0  0  0
  4  5  2  0  0  0  0
  3  6  2  0  0  0  0
  6  7  4  0  0  0  0
  5  8  4  0  0  0  0
  7  8  4  0  0  0  0
  8  9  4  0  0  0  0
  9 10  2  0  0  0  0
 10 11  4  0  0  0  0
  7 12  4  0  0  0  0
 11 12  2  0  0  0  0
  1 14  1  0  0  0  0
  1 15  1  0  0  0  0
  1 16  1  0  0  0  0
  2 17  1  0  0  0  0
  2 18  1  0  0  0  0
  4 19  1  0  0  0  0
  5 20  1  0  0  0  0
  6 21  1  0  0  0  0
  9 22  1  0  0  0  0
 10 23  1  0  0  0  0
 11 24  1  0  0  0  0
 12 25  1  0  0  0  0
M  END
