 xtb: 6.5.1 (fef0646)
          01232314233D

 37 39  0     0  0            999 V2000
    0.7962   -0.7245    1.6688 N   0  0  0  0  0  0  0  0  0  0  0  0
    1.9914    0.0901    1.8613 C   0  0  0  0  0  0  0  0  0  0  0  0
    3.2247   -0.6579    1.3348 C   0  0  0  0  0  0  0  0  0  0  0  0
    4.3970    0.1046    1.4781 O   0  0  0  0  0  0  0  0  0  0  0  0
    5.0115    0.2054    2.6930 C   0  0  0  0  0  0  0  0  0  0  0  0
    6.1187    1.0796    2.7425 C   0  0  0  0  0  0  0  0  0  0  0  0
    6.5404    1.8193    1.6002 C   0  0  0  0  0  0  0  0  0  0  0  0
    7.6034    2.6551    1.6603 C   0  0  0  0  0  0  0  0  0  0  0  0
    6.8311    1.2286    3.9544 C   0  0  0  0  0  0  0  0  0  0  0  0
    6.4377    0.5077    5.1093 C   0  0  0  0  0  0  0  0  0  0  0  0
    5.3396   -0.3436    5.0187 C   0  0  0  0  0  0  0  0  0  0  0  0
    4.6382   -0.4912    3.8363 C   0  0  0  0  0  0  0  0  0  0  0  0
    7.1778    0.6785    6.3154 C   0  0  0  0  0  0  0  0  0  0  0  0
    8.2423    1.5111    6.3720 C   0  0  0  0  0  0  0  0  0  0  0  0
    8.6639    2.2514    5.2274 C   0  0  0  0  0  0  0  0  0  0  0  0
    9.7588    3.1153    5.2640 C   0  0  0  0  0  0  0  0  0  0  0  0
   10.1411    3.8195    4.1363 C   0  0  0  0  0  0  0  0  0  0  0  0
    9.4456    3.6808    2.9500 C   0  0  0  0  0  0  0  0  0  0  0  0
    8.3441    2.8265    2.8656 C   0  0  0  0  0  0  0  0  0  0  0  0
    7.9448    2.1016    4.0152 C   0  0  0  0  0  0  0  0  0  0  0  0
    0.5169   -1.6060   -1.1421 Cl  0  0  0  0  0  0  0  0  0  0  0  0
   -0.0380   -0.2089    1.9255 H   0  0  0  0  0  0  0  0  0  0  0  0
    0.8378   -1.5700    2.2284 H   0  0  0  0  0  0  0  0  0  0  0  0
    0.6415   -1.1829    0.1387 H   0  0  0  0  0  0  0  0  0  0  0  0
    2.1531    0.3651    2.9136 H   0  0  0  0  0  0  0  0  0  0  0  0
    1.8722    1.0112    1.2871 H   0  0  0  0  0  0  0  0  0  0  0  0
    3.1142   -0.8206    0.2602 H   0  0  0  0  0  0  0  0  0  0  0  0
    3.3188   -1.6364    1.8219 H   0  0  0  0  0  0  0  0  0  0  0  0
    5.9834    1.6903    0.6855 H   0  0  0  0  0  0  0  0  0  0  0  0
    7.9146    3.2128    0.7884 H   0  0  0  0  0  0  0  0  0  0  0  0
    5.0289   -0.9012    5.8908 H   0  0  0  0  0  0  0  0  0  0  0  0
    3.7985   -1.1690    3.8215 H   0  0  0  0  0  0  0  0  0  0  0  0
    6.8646    0.1210    7.1871 H   0  0  0  0  0  0  0  0  0  0  0  0
    8.7993    1.6342    7.2901 H   0  0  0  0  0  0  0  0  0  0  0  0
   10.3091    3.2299    6.1870 H   0  0  0  0  0  0  0  0  0  0  0  0
   10.9919    4.4842    4.1839 H   0  0  0  0  0  0  0  0  0  0  0  0
    9.7509    4.2347    2.0737 H   0  0  0  0  0  0  0  0  0  0  0  0
  1  2  1  0  0  0  0
  2  3  1  0  0  0  0
  3  4  1  0  0  0  0
  4  5  1  0  0  0  0
  5  6  4  0  0  0  0
  6  7  4  0  0  0  0
  7  8  2  0  0  0  0
  6  9  4  0  0  0  0
  9 10  4  0  0  0  0
 10 11  4  0  0  0  0
  5 12  4  0  0  0  0
 11 12  4  0  0  0  0
 10 13  4  0  0  0  0
 13 14  2  0  0  0  0
 14 15  1  0  0  0  0
 15 16  4  0  0  0  0
 16 17  4  0  0  0  0
 17 18  4  0  0  0  0
  8 19  4  0  0  0  0
 18 19  4  0  0  0  0
  9 20  4  0  0  0  0
 15 20  4  0  0  0  0
 19 20  4  0  0  0  0
  1 22  1  0  0  0  0
  1 23  1  0  0  0  0
 21 24  1  0  0  0  0
  2 25  1  0  0  0  0
  2 26  1  0  0  0  0
  3 27  1  0  0  0  0
  3 28  1  0  0  0  0
  7 29  1  0  0  0  0
  8 30  1  0  0  0  0
 11 31  1  0  0  0  0
 12 32  1  0  0  0  0
 13 33  1  0  0  0  0
 14 34  1  0  0  0  0
 16 35  1  0  0  0  0
 17 36  1  0  0  0  0
 18 37  1  0  0  0  0
M  END
