36
 xtb: 6.5.1 (fef0646)
N           -6.22578738053469        0.21104190778050       -0.15029276168569
C           -4.74985490930515        0.00783212325287       -0.08838921811510
C           -3.98908359720550        1.28853431475296        0.23988563860904
C           -2.50249500313303        1.08668811058443        0.29305493908783
C           -1.73011472370699        1.19940686528683       -0.85429473954761
C           -0.36891059769471        0.98785181448810       -0.81505971259337
C            0.26986873856858        0.65110524873890        0.37924044441312
C            1.70742296994818        0.42604686578913        0.46531835116303
C            2.59241832505515        0.68510117880497       -0.50880322335060
C            4.02919457213597        0.46044244690920       -0.41655139279885
C            4.60105935316020       -0.29138094455804        0.60920465385052
C            5.96576324944486       -0.49504216800394        0.67742227391676
F            6.49997628736807       -1.23778521442770        1.68472190028523
C            6.78201935506587        0.05911694229239       -0.29320375452894
C            6.23797155152716        0.80203211555158       -1.32026130853453
C            4.87623047253549        1.00036028606576       -1.38493074057715
C           -0.51589346770804        0.52369805339500        1.52504487003096
C           -1.87648025495878        0.73601289332532        1.48032870855872
Cl          -7.82974410400677       -2.77656336465108       -0.79069053366618
H           -6.73019628891879       -0.64677708821383       -0.33923014758242
H           -6.46886406387935        0.90997361839876       -0.87227930853203
H           -6.57967884822360        0.60047874693934        0.75682153717082
H           -4.39891783336167       -0.40482957199623       -1.02763818954655
H           -4.51698319294857       -0.73866734325363        0.67946720166270
H           -4.32900663583119        1.72164230823432        1.17509231571965
H           -4.21845299367802        2.05932937062481       -0.52818582354293
H           -2.19538983308811        1.49618000017763       -1.78790637104522
H            0.21664982546541        1.10423544897206       -1.72040257715519
H            2.06087621574358       -0.01193744576037        1.38200268989418
H            2.24882100202895        1.16592770245175       -1.40372845637533
H            3.98821783581951       -0.73336653743947        1.37198308590555
H            7.84497699433606       -0.11321769804030       -0.23324877427965
H            6.88368142030207        1.22384734866327       -2.07262386248536
H            4.45858266884765        1.58973376999814       -2.17933648924200
H           -0.05530761198172        0.21114672413285        2.43874959766037
H           -2.47790224351394        0.59650016030627        2.35239706119178
