 xtb: 6.5.1 (fef0646)
          01242310093D

 21 21  0     0  0            999 V2000
   -4.2189    0.1639   -0.4640 N   0  0  0  0  0  0  0  0  0  0  0  0
   -2.7409    0.2295   -0.6665 C   0  0  0  0  0  0  0  0  0  0  0  0
   -1.9503   -0.1842    0.5722 C   0  0  0  0  0  0  0  0  0  0  0  0
   -0.4625   -0.1238    0.3777 C   0  0  0  0  0  0  0  0  0  0  0  0
    0.2456    1.0463    0.6525 C   0  0  0  0  0  0  0  0  0  0  0  0
    1.6099    1.1101    0.4569 C   0  0  0  0  0  0  0  0  0  0  0  0
    2.3015    0.0023   -0.0254 C   0  0  0  0  0  0  0  0  0  0  0  0
    3.6072    0.0636   -0.2220 F   0  0  0  0  0  0  0  0  0  0  0  0
    1.6024   -1.1687   -0.3059 C   0  0  0  0  0  0  0  0  0  0  0  0
    0.2381   -1.2274   -0.1087 C   0  0  0  0  0  0  0  0  0  0  0  0
   -4.5200   -0.7912   -0.2209 H   0  0  0  0  0  0  0  0  0  0  0  0
   -4.7337    0.4443   -1.3124 H   0  0  0  0  0  0  0  0  0  0  0  0
   -4.5192    0.7872    0.3000 H   0  0  0  0  0  0  0  0  0  0  0  0
   -2.4600    1.2479   -0.9614 H   0  0  0  0  0  0  0  0  0  0  0  0
   -2.4620   -0.4093   -1.5133 H   0  0  0  0  0  0  0  0  0  0  0  0
   -2.2359   -1.1989    0.8700 H   0  0  0  0  0  0  0  0  0  0  0  0
   -2.2314    0.4517    1.4185 H   0  0  0  0  0  0  0  0  0  0  0  0
   -0.2815    1.9086    1.0286 H   0  0  0  0  0  0  0  0  0  0  0  0
    2.1662    2.0092    0.6727 H   0  0  0  0  0  0  0  0  0  0  0  0
    2.1531   -2.0199   -0.6757 H   0  0  0  0  0  0  0  0  0  0  0  0
   -0.2950   -2.1390   -0.3271 H   0  0  0  0  0  0  0  0  0  0  0  0
  1  2  1  0  0  0  0
  2  3  1  0  0  0  0
  3  4  1  0  0  0  0
  4  5  4  0  0  0  0
  5  6  4  0  0  0  0
  6  7  4  0  0  0  0
  7  8  1  0  0  0  0
  7  9  4  0  0  0  0
  4 10  4  0  0  0  0
  9 10  4  0  0  0  0
  1 11  1  0  0  0  0
  1 12  1  0  0  0  0
  1 13  1  0  0  0  0
  2 14  1  0  0  0  0
  2 15  1  0  0  0  0
  3 16  1  0  0  0  0
  3 17  1  0  0  0  0
  5 18  1  0  0  0  0
  6 19  1  0  0  0  0
  9 20  1  0  0  0  0
 10 21  1  0  0  0  0
M  CHG  1   1   1
M  END
