  16

 N         -0.0382332150       -1.2582313317        0.3614918157
 C          0.9075170428       -0.4250320170       -0.3786769152
 C          2.4029559777       -0.6996260333       -0.0810752325
 C          2.6169156535        0.8237899447        0.0714439007
 C          1.0860937746        1.0060873087        0.1839765231
 Cl        -2.7780259938        0.4918778724       -0.3430886229
 H          0.0630357768       -2.2214844771        0.0627886296
 H         -1.6811537982       -0.2175221839       -0.0584225855
 H          0.2125612522       -1.2456663285        1.3427277982
 H          0.6818481670       -0.4222480947       -1.4577752313
 H          2.9545748910       -1.1633375619       -0.9094443858
 H          2.5498063244       -1.2648181964        0.8467235728
 H          3.0479546601        1.2957648416       -0.8209741209
 H          3.1782281802        1.1183199932        0.9687388425
 H          0.6666055550        1.7995911280       -0.4481398013
 H          0.7219066429        1.0984970391        1.2135505692
          16
        -21.11074677
 N          0.3067427455        1.7024933984        0.0002449174
 C          1.4303574635        0.7649102298        0.0030615995
 C          1.3490591001       -0.3342563389       -1.0856526585
 C          1.6643490586       -1.3885888886       -0.0004749007
 C          1.3398934948       -0.3379461200        1.0856625093
 Cl        -2.3768926855       -0.2649126749       -0.0010996742
 H          0.3729638879        2.3050723990        0.8121406018
 H         -1.3077931178        0.5362929730        0.0002095675
 H          0.3750350246        2.3043656845       -0.8125380277
 H          2.4077326518        1.2769085668        0.0078588190
 H          2.1028310881       -0.2472039555       -1.8792296332
 H          0.3440891681       -0.4213166980       -1.5143144702
 H          2.7134163953       -1.7117078045        0.0033811417
 H          0.9956723573       -2.2601680721       -0.0045539844
 H          2.0862150615       -0.2536575473        1.8861946487
 H          0.3314994670       -0.4268265581        1.5051862005
