 xtb: 6.5.1 (fef0646)
          01242310113D

 17 16  0     0  0            999 V2000
   -1.6824   -1.6168   -0.4597 N   0  0  0  0  0  0  0  0  0  0  0  0
   -2.5574   -0.8282    0.4516 C   0  0  0  0  0  0  0  0  0  0  0  0
   -2.7421    0.6261    0.0198 C   0  0  0  0  0  0  0  0  0  0  0  0
   -1.5348    1.5493    0.2678 C   0  0  0  0  0  0  0  0  0  0  0  0
   -0.3449    1.3398   -0.6594 C   0  0  0  0  0  0  0  0  0  0  0  0
    1.0250   -0.0871    0.0552 I   0  0  0  0  0  0  0  0  0  0  0  0
   -0.7005   -1.2260   -0.4815 H   0  0  0  0  0  0  0  0  0  0  0  0
   -2.0471   -1.6116   -1.4245 H   0  0  0  0  0  0  0  0  0  0  0  0
   -1.6152   -2.6034   -0.1633 H   0  0  0  0  0  0  0  0  0  0  0  0
   -2.1559   -0.8661    1.4713 H   0  0  0  0  0  0  0  0  0  0  0  0
   -3.5338   -1.3292    0.5040 H   0  0  0  0  0  0  0  0  0  0  0  0
   -3.6162    1.0401    0.5414 H   0  0  0  0  0  0  0  0  0  0  0  0
   -3.0081    0.6549   -1.0428 H   0  0  0  0  0  0  0  0  0  0  0  0
   -1.2059    1.4529    1.3110 H   0  0  0  0  0  0  0  0  0  0  0  0
   -1.8708    2.5940    0.1750 H   0  0  0  0  0  0  0  0  0  0  0  0
    0.2786    2.2351   -0.7299 H   0  0  0  0  0  0  0  0  0  0  0  0
   -0.6549    1.0791   -1.6724 H   0  0  0  0  0  0  0  0  0  0  0  0
  1  2  1  0  0  0  0
  2  3  1  0  0  0  0
  3  4  1  0  0  0  0
  4  5  1  0  0  0  0
  5  6  1  0  0  0  0
  1  7  1  0  0  0  0
  1  8  1  0  0  0  0
  1  9  1  0  0  0  0
  2 10  1  0  0  0  0
  2 11  1  0  0  0  0
  3 12  1  0  0  0  0
  3 13  1  0  0  0  0
  4 14  1  0  0  0  0
  4 15  1  0  0  0  0
  5 16  1  0  0  0  0
  5 17  1  0  0  0  0
M  CHG  1   1   1
M  END
