22

N          1.14400       -0.00745       -0.37658
C          2.60291       -0.00611       -0.28539
C          3.06088       -0.28080        1.14812
C          4.56675       -0.30301        1.25142
C          5.31816        0.84665        0.96388
C          6.71211        0.81326        1.02090
C          7.36041       -0.36337        1.38482
Br         9.24920       -0.41077        1.45003
C          6.62902       -1.50713        1.70211
C          5.23443       -1.47499        1.63554
Cl        -0.73536       -0.40043        1.67031
H          0.71582        0.19788       -1.27887
H          0.67624        0.60543        0.33098
H          0.70009       -0.87629       -0.01205
H          2.93484        0.97453       -0.64032
H          2.96799       -0.77071       -0.97873
H          2.65138       -1.24111        1.48594
H          2.67451        0.48357        1.83363
H          4.83003        1.78255        0.70077
H          7.28076        1.70942        0.78737
H          7.13187       -2.42126        2.00335
H          4.67639       -2.37359        1.89427
