28
1.132
N           -1.70461  -1.18323   0.93250
C           -1.71553  -1.52264  -0.52021
C           -1.00507  -0.50121  -1.40585
C            0.50551  -0.29660  -1.14133
C            1.28627  -1.62213  -0.98762
C            2.79802  -1.36265  -0.86484
C            3.10179  -0.41439   0.30926
C            2.31856   0.90400   0.17786
C            0.80856   0.63838   0.05535
Cl          -2.37004   2.21123   1.25621
H           -1.95185  -0.18765   1.07783
H           -0.77517  -1.34088   1.35480
H           -2.37883  -1.75505   1.47057
H           -2.75706  -1.62243  -0.84772
H           -1.27813  -2.51833  -0.66586
H           -1.51163   0.46747  -1.31429
H           -1.13963  -0.79584  -2.45546
H            0.92958   0.21129  -2.02575
H            1.06191  -2.29582  -1.82508
H            0.93548  -2.14164  -0.08896
H            3.16728  -0.91675  -1.79718
H            3.34795  -2.30804  -0.75600
H            4.18082  -0.22071   0.38442
H            2.82800  -0.90580   1.25168
H            2.66594   1.44633  -0.71078
H            2.52959   1.56996   1.02647
H            0.24573   1.57603  -0.04201
H            0.45147   0.18020   0.98193
