 xtb: 6.5.1 (fef0646)
          01242310093D

 22 21  0     0  0            999 V2000
   -1.4047    0.3698    0.5837 N   0  0  0  0  0  0  0  0  0  0  0  0
   -0.7812    1.4776   -0.1887 C   0  0  0  0  0  0  0  0  0  0  0  0
    0.6077    1.8285    0.3381 C   0  0  0  0  0  0  0  0  0  0  0  0
    1.5583    0.6685    0.2653 C   0  0  0  0  0  0  0  0  0  0  0  0
    1.8152   -0.1117    1.3850 C   0  0  0  0  0  0  0  0  0  0  0  0
    2.6547   -1.2060    1.3041 C   0  0  0  0  0  0  0  0  0  0  0  0
    3.2447   -1.5370    0.1004 C   0  0  0  0  0  0  0  0  0  0  0  0
    2.9924   -0.7735   -1.0221 C   0  0  0  0  0  0  0  0  0  0  0  0
    2.1525    0.3203   -0.9400 C   0  0  0  0  0  0  0  0  0  0  0  0
   -4.5050   -0.4994   -0.7326 Cl  0  0  0  0  0  0  0  0  0  0  0  0
   -1.5191    0.6285    1.5766 H   0  0  0  0  0  0  0  0  0  0  0  0
   -0.8118   -0.4748    0.5553 H   0  0  0  0  0  0  0  0  0  0  0  0
   -2.3402    0.1104    0.2128 H   0  0  0  0  0  0  0  0  0  0  0  0
   -1.4360    2.3578   -0.1645 H   0  0  0  0  0  0  0  0  0  0  0  0
   -0.7114    1.1885   -1.2445 H   0  0  0  0  0  0  0  0  0  0  0  0
    0.5321    2.1677    1.3774 H   0  0  0  0  0  0  0  0  0  0  0  0
    1.0298    2.6748   -0.2175 H   0  0  0  0  0  0  0  0  0  0  0  0
    1.3478    0.1425    2.3223 H   0  0  0  0  0  0  0  0  0  0  0  0
    2.8479   -1.8031    2.1817 H   0  0  0  0  0  0  0  0  0  0  0  0
    3.9000   -2.3918    0.0367 H   0  0  0  0  0  0  0  0  0  0  0  0
    3.4494   -1.0325   -1.9645 H   0  0  0  0  0  0  0  0  0  0  0  0
    1.9479    0.9134   -1.8167 H   0  0  0  0  0  0  0  0  0  0  0  0
  1  2  1  0  0  0  0
  2  3  1  0  0  0  0
  3  4  1  0  0  0  0
  4  5  4  0  0  0  0
  5  6  4  0  0  0  0
  6  7  4  0  0  0  0
  7  8  4  0  0  0  0
  4  9  4  0  0  0  0
  8  9  4  0  0  0  0
  1 11  1  0  0  0  0
  1 12  1  0  0  0  0
  1 13  1  0  0  0  0
  2 14  1  0  0  0  0
  2 15  1  0  0  0  0
  3 16  1  0  0  0  0
  3 17  1  0  0  0  0
  5 18  1  0  0  0  0
  6 19  1  0  0  0  0
  7 20  1  0  0  0  0
  8 21  1  0  0  0  0
  9 22  1  0  0  0  0
M  END
