27
2.59
N           -2.78396   0.95978   0.74110
C           -2.50667  -0.16741  -0.19931
C           -1.16919  -0.87125   0.07910
C           -0.03857  -0.50379  -0.90319
C            1.21591  -1.39730  -0.70037
C            1.99369  -1.03861   0.57818
C            2.37879   0.44985   0.59993
C            1.13879   1.34384   0.43646
C            0.36458   0.99290  -0.84630
H           -3.67855   1.41492   0.52755
H           -2.05113   1.67704   0.69511
H           -2.82650   0.62144   1.70886
H           -2.53150   0.19776  -1.23210
H           -3.33593  -0.88279  -0.12960
H           -1.30859  -1.95845   0.05659
H           -0.85061  -0.64995   1.10095
H           -0.42574  -0.70404  -1.91684
H            1.88018  -1.29722  -1.56607
H            0.91851  -2.45247  -0.67967
H            2.88879  -1.66747   0.67184
H            1.38461  -1.27157   1.45845
H            3.08434   0.65467  -0.21326
H            2.91593   0.69777   1.52468
H            1.42574   2.40355   0.43522
H            0.48691   1.22202   1.30797
H            0.98815   1.23258  -1.71490
H           -0.52327   1.62637  -0.94735
