 xtb: 6.5.1 (fef0646)
          02032320253D

 27 27  0     0  0            999 V2000
   -2.7840    0.9598    0.7411 N   0  0  0  0  0  0  0  0  0  0  0  0
   -2.5067   -0.1674   -0.1993 C   0  0  0  0  0  0  0  0  0  0  0  0
   -1.1692   -0.8712    0.0791 C   0  0  0  0  0  0  0  0  0  0  0  0
   -0.0386   -0.5038   -0.9032 C   0  0  0  0  0  0  0  0  0  0  0  0
    1.2159   -1.3973   -0.7004 C   0  0  0  0  0  0  0  0  0  0  0  0
    1.9937   -1.0386    0.5782 C   0  0  0  0  0  0  0  0  0  0  0  0
    2.3788    0.4498    0.5999 C   0  0  0  0  0  0  0  0  0  0  0  0
    1.1388    1.3438    0.4365 C   0  0  0  0  0  0  0  0  0  0  0  0
    0.3646    0.9929   -0.8463 C   0  0  0  0  0  0  0  0  0  0  0  0
   -3.6785    1.4149    0.5276 H   0  0  0  0  0  0  0  0  0  0  0  0
   -2.0511    1.6771    0.6951 H   0  0  0  0  0  0  0  0  0  0  0  0
   -2.8265    0.6215    1.7089 H   0  0  0  0  0  0  0  0  0  0  0  0
   -2.5315    0.1978   -1.2321 H   0  0  0  0  0  0  0  0  0  0  0  0
   -3.3359   -0.8828   -0.1296 H   0  0  0  0  0  0  0  0  0  0  0  0
   -1.3086   -1.9584    0.0566 H   0  0  0  0  0  0  0  0  0  0  0  0
   -0.8506   -0.6499    1.1010 H   0  0  0  0  0  0  0  0  0  0  0  0
   -0.4258   -0.7040   -1.9168 H   0  0  0  0  0  0  0  0  0  0  0  0
    1.8802   -1.2972   -1.5661 H   0  0  0  0  0  0  0  0  0  0  0  0
    0.9185   -2.4525   -0.6797 H   0  0  0  0  0  0  0  0  0  0  0  0
    2.8888   -1.6675    0.6718 H   0  0  0  0  0  0  0  0  0  0  0  0
    1.3846   -1.2716    1.4584 H   0  0  0  0  0  0  0  0  0  0  0  0
    3.0843    0.6547   -0.2133 H   0  0  0  0  0  0  0  0  0  0  0  0
    2.9159    0.6978    1.5247 H   0  0  0  0  0  0  0  0  0  0  0  0
    1.4258    2.4035    0.4352 H   0  0  0  0  0  0  0  0  0  0  0  0
    0.4869    1.2220    1.3080 H   0  0  0  0  0  0  0  0  0  0  0  0
    0.9882    1.2326   -1.7149 H   0  0  0  0  0  0  0  0  0  0  0  0
   -0.5233    1.6264   -0.9474 H   0  0  0  0  0  0  0  0  0  0  0  0
  1  2  1  0  0  0  0
  2  3  1  0  0  0  0
  3  4  1  0  0  0  0
  4  5  1  0  0  0  0
  5  6  1  0  0  0  0
  6  7  1  0  0  0  0
  7  8  1  0  0  0  0
  4  9  1  0  0  0  0
  8  9  1  0  0  0  0
  1 10  1  0  0  0  0
  1 11  1  0  0  0  0
  1 12  1  0  0  0  0
  2 13  1  0  0  0  0
  2 14  1  0  0  0  0
  3 15  1  0  0  0  0
  3 16  1  0  0  0  0
  4 17  1  0  0  0  0
  5 18  1  0  0  0  0
  5 19  1  0  0  0  0
  6 20  1  0  0  0  0
  6 21  1  0  0  0  0
  7 22  1  0  0  0  0
  7 23  1  0  0  0  0
  8 24  1  0  0  0  0
  8 25  1  0  0  0  0
  9 26  1  0  0  0  0
  9 27  1  0  0  0  0
M  CHG  1   1   1
M  END
