20

N          0.98571        0.10941        0.00026
C          2.46532        0.09142        0.08390
C          3.04758       -0.16693       -1.29981
C          4.57961       -0.19208       -1.30363
C          5.17310       -1.34137       -0.48226
C          6.68212       -1.31792       -0.51111
O          7.23885       -2.52198       -0.27166
O          7.34294       -0.30524       -0.67864
H          0.56800        0.26419        0.92798
H          0.60799       -0.77642       -0.36091
H          0.65048        0.86492       -0.61264
H          2.71888       -0.69901        0.79422
H          2.77588        1.06115        0.48439
H          2.71351        0.62223       -1.98638
H          2.66618       -1.11345       -1.70188
H          4.95820        0.77082       -0.93830
H          4.92570       -0.28159       -2.34189
H          4.81633       -2.29219       -0.89103
H          4.87228       -1.27189        0.56729
H          6.62047       -3.26564       -0.14435
