 xtb: 6.5.1 (fef0646)
          01232314143D

 20 19  0     0  0            999 V2000
    1.3645    0.4704    0.3255 N   0  0  0  0  0  0  0  0  0  0  0  0
    2.7925    0.0928    0.0660 C   0  0  0  0  0  0  0  0  0  0  0  0
    2.9599   -0.4380   -1.3522 C   0  0  0  0  0  0  0  0  0  0  0  0
    4.4242   -0.4802   -1.8089 C   0  0  0  0  0  0  0  0  0  0  0  0
    5.2891   -1.5665   -1.1645 C   0  0  0  0  0  0  0  0  0  0  0  0
    5.7825   -1.2062    0.2285 C   0  0  0  0  0  0  0  0  0  0  0  0
    6.6865   -2.0296    0.7504 O   0  0  0  0  0  0  0  0  0  0  0  0
    5.3810   -0.2571    0.8456 O   0  0  0  0  0  0  0  0  0  0  0  0
    1.2626    0.8397    1.2786 H   0  0  0  0  0  0  0  0  0  0  0  0
    0.7530   -0.3484    0.2188 H   0  0  0  0  0  0  0  0  0  0  0  0
    1.0631    1.1906   -0.3436 H   0  0  0  0  0  0  0  0  0  0  0  0
    3.0899   -0.6477    0.8058 H   0  0  0  0  0  0  0  0  0  0  0  0
    3.4184    0.9726    0.2130 H   0  0  0  0  0  0  0  0  0  0  0  0
    2.4307    0.2261   -2.0410 H   0  0  0  0  0  0  0  0  0  0  0  0
    2.5225   -1.4348   -1.4415 H   0  0  0  0  0  0  0  0  0  0  0  0
    4.8861    0.4897   -1.6211 H   0  0  0  0  0  0  0  0  0  0  0  0
    4.4234   -0.6477   -2.8862 H   0  0  0  0  0  0  0  0  0  0  0  0
    6.1647   -1.7330   -1.7963 H   0  0  0  0  0  0  0  0  0  0  0  0
    4.7427   -2.5118   -1.1061 H   0  0  0  0  0  0  0  0  0  0  0  0
    6.9717   -2.7425    0.1628 H   0  0  0  0  0  0  0  0  0  0  0  0
  1  2  1  0  0  0  0
  2  3  1  0  0  0  0
  3  4  1  0  0  0  0
  4  5  1  0  0  0  0
  5  6  1  0  0  0  0
  6  7  1  0  0  0  0
  6  8  2  0  0  0  0
  1  9  1  0  0  0  0
  1 10  1  0  0  0  0
  1 11  1  0  0  0  0
  2 12  1  0  0  0  0
  2 13  1  0  0  0  0
  3 14  1  0  0  0  0
  3 15  1  0  0  0  0
  4 16  1  0  0  0  0
  4 17  1  0  0  0  0
  5 18  1  0  0  0  0
  5 19  1  0  0  0  0
  7 20  1  0  0  0  0
M  CHG  1   1   1
M  END
