17
0.029
N           -3.44124   0.74471   0.47808
C           -3.08138  -0.25086  -0.57798
C           -1.57359  -0.40742  -0.78762
C           -0.85334  -1.09316   0.38071
C            0.63858  -1.28586   0.14412
Br           1.59496   0.38736   0.04598
H           -3.09240   0.45609   1.39720
H           -4.45763   0.85071   0.55212
H           -3.04298   1.66316   0.26067
H           -3.55829   0.05667  -1.51776
H           -3.52382  -1.22146  -0.32439
H           -1.13040   0.57830  -0.96905
H           -1.38698  -0.98102  -1.70444
H           -1.32735  -2.06520   0.57299
H           -0.99998  -0.51279   1.29974
H            0.82592  -1.82640  -0.78669
H            1.10352  -1.86072   0.94992
