17
1.142
N           -4.63751   0.60145   0.30182
C           -3.30433   0.64587  -0.37520
C           -2.16792   0.14465   0.51238
C           -0.79459   0.18707  -0.17414
C            0.33574  -0.30936   0.71263
Br           2.04074  -0.24505  -0.18892
H           -4.87065  -0.35648   0.57595
H           -5.37772   0.94500  -0.31616
H           -4.63296   1.18118   1.14508
H           -3.09799   1.67378  -0.69628
H           -3.34768   0.04958  -1.29432
H           -2.38366  -0.87899   0.83698
H           -2.13564   0.73822   1.43236
H           -0.57941   1.21262  -0.50232
H           -0.82609  -0.40903  -1.09576
H            0.17079  -1.34307   1.02548
H            0.42303   0.29292   1.61999
