17
0.0
N           -3.91232   0.86726   0.16192
C           -3.01174  -0.20088  -0.37200
C           -1.63167  -0.19613   0.28175
C           -0.69774  -1.28651  -0.26220
C            0.68554  -1.26891   0.37187
Br           1.65733   0.34591  -0.04047
H           -4.05134   0.75138   1.16913
H           -4.82969   0.83785  -0.29134
H           -3.50743   1.79332   0.00135
H           -2.90944  -0.07572  -1.45657
H           -3.48772  -1.17818  -0.22795
H           -1.74304  -0.31508   1.36533
H           -1.17025   0.78872   0.14637
H           -0.60140  -1.17606  -1.35037
H           -1.16499  -2.26898  -0.11142
H            1.30131  -2.10207   0.02204
H            0.62415  -1.34666   1.45987
