42
 xtb: 6.5.1 (fef0646)
N           -5.75822186546120       -0.47776299217089        0.47933991100078
C           -5.15461270586583        0.72236850107534       -0.17647966452026
C           -3.72771907775786        0.97248912528312        0.29687455214638
C           -3.06761460822360        2.17052534601013       -0.38701070153315
C           -1.63390650742518        2.43018579429810        0.08578863960482
C           -0.65493532582338        1.31946653209191       -0.29841348477002
C            0.78326498313128        1.61619359614342        0.12591360764536
C            1.75821936930402        0.50254431067055       -0.25609170980306
C            3.19667603364989        0.79492554926903        0.16993853804396
C            4.17177311658379       -0.31756650461786       -0.21490328408561
C            5.61028323625859       -0.02436097183465        0.21119114963794
C            6.58828306048038       -1.13488714490190       -0.17485014210961
C            8.01824918621508       -0.83307964374240        0.24879289475138
Cl          -3.81275813236543       -2.95088739322636       -0.07848037948017
H           -6.75779184437051       -0.58853711616663        0.16476311447319
H           -5.84898601632391       -0.27032484162485        1.52337486404463
H           -5.23798029020100       -1.25921030945894        0.33588045093850
H           -5.77498038714099        1.66755100650581        0.02064765571935
H           -5.19390662302545        0.62715041379561       -1.25267999911454
H           -3.16057774723377        0.08304479185339        0.12135806894232
H           -3.72428700869085        1.13848195598880        1.38288794009716
H           -3.68433624862407        3.08108822889725       -0.23053469739106
H           -3.07754473236647        2.02770717083742       -1.47765764906598
H           -1.62810094209894        2.57743758141094        1.16745942894360
H           -1.26830927326499        3.38515947949488       -0.33316414411282
H           -0.70212453451488        1.14913545881751       -1.38020671703698
H           -0.98583012932156        0.37352085186072        0.15152499135960
H            0.81495537665379        1.78724173724073        1.20608205861589
H            1.10616153147061        2.55871970743956       -0.32625211129672
H            1.71057247766469        0.32663368340437       -1.33667416888970
H            1.41841093415229       -0.44632039605110        0.19485303727540
H            3.22719708230388        0.96089051426398        1.25126139434360
H            3.51807345336156        1.73703554839593       -0.27882792547390
H            4.12372734714379       -0.49261349420408       -1.29515786872460
H            3.83300595026828       -1.26919240956552        0.23483204856925
H            5.64034769076024        0.13975421131725        1.29348289126159
H            5.93018759047536        0.91740610619447       -0.23580517971876
H            6.53067977150256       -1.31109431472160       -1.25463306704830
H            6.24406906506343       -2.08739860059008        0.27716757475079
H            8.37112219892705        0.07946228542699       -0.21363895595570
H            8.69764365879509       -1.64105301367786       -0.02869433831987
H            8.08301571099761       -0.70506008546609        1.33052457276371
