42
 xtb: 6.5.1 (fef0646)
N           -5.71975140104909       -0.50686328772580        0.47482481353175
C           -5.16366976929849        0.73137365289315       -0.15814722712411
C           -3.73427839688567        0.99587451015070        0.30218321443812
C           -3.07522773539294        2.18775224860296       -0.39211561202203
C           -1.63884237255907        2.44381211507510        0.07538762162125
C           -0.66576060357353        1.32456152958451       -0.29974988368826
C            0.77431461155991        1.61766605483363        0.12116969883110
C            1.74547597342066        0.49822096352187       -0.25388357620586
C            3.18545925578354        0.79039558641714        0.16755270232722
C            4.15843491703788       -0.32606617773997       -0.21124870404297
C            5.59813356313393       -0.03179647047932        0.21033428186559
C            6.57411667926201       -1.14632396419929       -0.16924565493820
C            8.00511684340252       -0.84384592930583        0.25046078598042
Cl          -3.75824025577010       -2.94245038837736       -0.08348864605466
H           -6.74502984041582       -0.60589342142183        0.16195428347042
H           -5.84188499462526       -0.28294957061429        1.52257405281727
H           -5.21403041105573       -1.26282994227986        0.33122577949392
H           -5.78259064734098        1.66496204226443        0.03478473050046
H           -5.19928844677016        0.63798254054554       -1.24851986999150
H           -3.16229372492439        0.08975778737431        0.12338766067148
H           -3.72410027489242        1.14703589734785        1.38413969562395
H           -3.68529919878282        3.08704384492370       -0.23305022477266
H           -3.08092454048882        2.03075796376952       -1.47886839682813
H           -1.62876873400217        2.58415252530828        1.16408506017409
H           -1.26832472839966        3.38741565497159       -0.33873989864526
H           -0.70564946705510        1.14791488705376       -1.38018670691576
H           -0.99008132737816        0.37650740368589        0.15352262715690
H            0.81282355408877        1.78976895653241        1.20435204066249
H            1.10455300423266        2.55784041781235       -0.32958428815225
H            1.70627516954748        0.32301290361639       -1.33566177684235
H            1.41424541107530       -0.44638978041311        0.19766894833688
H            3.22455679781056        0.96168574098160        1.25021440692984
H            3.51505720270905        1.73464355879452       -0.28155918704533
H            4.11926081993845       -0.49725633881455       -1.29375021914204
H            3.82901459267441       -1.27065745976991        0.23792349381908
H            5.63737711250459        0.13980036290786        1.29287072129359
H            5.92680489846629        0.91417439002225       -0.23816456266204
H            6.52609987506683       -1.31657411893349       -1.25265970461530
H            6.23972579951525       -2.08968486291237        0.28077953269284
H            8.36760333012601        0.07517841132952       -0.21519539606068
H            8.69331809358323       -1.64511620615817       -0.02677687169899
H            8.07964291805325       -0.70599827047408        1.33069976160421
