 xtb: 6.5.1 (fef0646)
          01242315153D

 11 10  0     0  0            999 V2000
    1.0568    0.0557   -0.0489 N   0  0  0  0  0  0  0  0  0  0  0  0
    2.5424    0.0659   -0.0348 C   0  0  0  0  0  0  0  0  0  0  0  0
    3.0469    0.8517    1.1633 C   0  0  0  0  0  0  0  0  0  0  0  0
    0.6991   -0.4676   -0.8557 H   0  0  0  0  0  0  0  0  0  0  0  0
    0.7005    1.0179   -0.0929 H   0  0  0  0  0  0  0  0  0  0  0  0
    0.7007   -0.3775    0.8116 H   0  0  0  0  0  0  0  0  0  0  0  0
    2.9028    0.5196   -0.9575 H   0  0  0  0  0  0  0  0  0  0  0  0
    2.9039   -0.9609    0.0125 H   0  0  0  0  0  0  0  0  0  0  0  0
    2.7161    1.8860    1.1244 H   0  0  0  0  0  0  0  0  0  0  0  0
    4.1324    0.8531    1.1722 H   0  0  0  0  0  0  0  0  0  0  0  0
    2.7100    0.4085    2.0965 H   0  0  0  0  0  0  0  0  0  0  0  0
  1  2  1  0  0  0  0
  2  3  1  0  0  0  0
  1  4  1  0  0  0  0
  1  5  1  0  0  0  0
  1  6  1  0  0  0  0
  2  7  1  0  0  0  0
  2  8  1  0  0  0  0
  3  9  1  0  0  0  0
  3 10  1  0  0  0  0
  3 11  1  0  0  0  0
M  CHG  1   1   1
M  END
