 xtb: 6.5.1 (fef0646)
          01232318493D

 11 10  0     0  0            999 V2000
    0.9566    0.0127   -0.0847 N   0  0  0  0  0  0  0  0  0  0  0  0
    2.4562    0.0330   -0.0925 C   0  0  0  0  0  0  0  0  0  0  0  0
    2.9471    1.3696   -0.6088 C   0  0  0  0  0  0  0  0  0  0  0  0
    0.5911   -0.8833    0.2613 H   0  0  0  0  0  0  0  0  0  0  0  0
    0.6029    0.1709   -1.0382 H   0  0  0  0  0  0  0  0  0  0  0  0
    0.6029    0.7707    0.5149 H   0  0  0  0  0  0  0  0  0  0  0  0
    2.8060   -0.7804   -0.7292 H   0  0  0  0  0  0  0  0  0  0  0  0
    2.8060   -0.1413    0.9256 H   0  0  0  0  0  0  0  0  0  0  0  0
    2.6132    1.5486   -1.6277 H   0  0  0  0  0  0  0  0  0  0  0  0
    4.0331    1.3782   -0.6121 H   0  0  0  0  0  0  0  0  0  0  0  0
    2.6132    2.1870    0.0254 H   0  0  0  0  0  0  0  0  0  0  0  0
  1  2  1  0  0  0  0
  2  3  1  0  0  0  0
  1  4  1  0  0  0  0
  1  5  1  0  0  0  0
  1  6  1  0  0  0  0
  2  7  1  0  0  0  0
  2  8  1  0  0  0  0
  3  9  1  0  0  0  0
  3 10  1  0  0  0  0
  3 11  1  0  0  0  0
M  CHG  1   1   1
M  END
