16
 xtb: 6.5.1 (fef0646)
N            0.00755488275201       -0.58601540454436        0.53387721695048
C            0.75591753206095       -0.30200282473721       -0.72565682266113
C            2.27285397191659       -0.38258921124630       -0.55211572882536
C            2.83303272082090        0.65873571426570        0.36119017839499
C            2.80055235753233        1.94907665061348        0.07242396483297
Cl          -3.30588396081927       -0.45414090239027        0.09158356900113
H           -0.98121860256932       -0.56554987301834        0.43074026106854
H            0.30641564023195        0.07626387614385        1.27914214513279
H            0.29358582747139       -1.53889846047310        0.89992377208287
H            0.47250643525768        0.68159585285488       -1.09033114955107
H            0.44144982090368       -1.01584517382456       -1.49843470333390
H            2.77584079286647       -0.24367915624195       -1.54074759118440
H            2.57931165832696       -1.36371661507519       -0.22023026130688
H            3.14742356536393        0.35036195036254        1.34670204075579
H            2.51470352817196        2.30671419774546       -0.88987754211768
H            3.22655019696107        2.69035489610413        0.75211039734530
