 xtb: 6.5.1 (fef0646)
          01242310123D

 29 29  0     0  0            999 V2000
   -2.2483    2.5339   -0.6309 N   0  0  0  0  0  0  0  0  0  0  0  0
   -3.1073    1.5251    0.0382 C   0  0  0  0  0  0  0  0  0  0  0  0
   -2.2690    0.3646    0.5421 C   0  0  0  0  0  0  0  0  0  0  0  0
   -1.2192    0.8256    1.3945 O   0  0  0  0  0  0  0  0  0  0  0  0
   -0.2310   -0.1456    1.6613 C   0  0  0  0  0  0  0  0  0  0  0  0
   -0.1774   -0.7632    2.9009 C   0  0  0  0  0  0  0  0  0  0  0  0
    0.7699   -1.7419    3.1821 C   0  0  0  0  0  0  0  0  0  0  0  0
    1.6842   -2.1191    2.2372 C   0  0  0  0  0  0  0  0  0  0  0  0
    1.6908   -1.5149    0.9628 C   0  0  0  0  0  0  0  0  0  0  0  0
    2.6312   -1.8707   -0.0290 C   0  0  0  0  0  0  0  0  0  0  0  0
    2.6247   -1.2551   -1.2483 C   0  0  0  0  0  0  0  0  0  0  0  0
    1.6876   -0.2582   -1.5300 C   0  0  0  0  0  0  0  0  0  0  0  0
    0.7649    0.1077   -0.5906 C   0  0  0  0  0  0  0  0  0  0  0  0
    0.7342   -0.5144    0.6690 C   0  0  0  0  0  0  0  0  0  0  0  0
   -0.6523    1.3325   -3.4689 Cl  0  0  0  0  0  0  0  0  0  0  0  0
   -1.7998    2.1455   -1.4820 H   0  0  0  0  0  0  0  0  0  0  0  0
   -1.4927    2.8241    0.0084 H   0  0  0  0  0  0  0  0  0  0  0  0
   -2.7754    3.3788   -0.9086 H   0  0  0  0  0  0  0  0  0  0  0  0
   -3.8931    1.1782   -0.6436 H   0  0  0  0  0  0  0  0  0  0  0  0
   -3.6202    1.9940    0.8856 H   0  0  0  0  0  0  0  0  0  0  0  0
   -1.8213   -0.1828   -0.2934 H   0  0  0  0  0  0  0  0  0  0  0  0
   -2.8682   -0.3549    1.1121 H   0  0  0  0  0  0  0  0  0  0  0  0
   -0.8985   -0.4733    3.6453 H   0  0  0  0  0  0  0  0  0  0  0  0
    0.7800   -2.2081    4.1546 H   0  0  0  0  0  0  0  0  0  0  0  0
    2.4151   -2.8789    2.4591 H   0  0  0  0  0  0  0  0  0  0  0  0
    3.3576   -2.6352    0.1910 H   0  0  0  0  0  0  0  0  0  0  0  0
    3.3478   -1.5357   -1.9980 H   0  0  0  0  0  0  0  0  0  0  0  0
    1.6907    0.2220   -2.4954 H   0  0  0  0  0  0  0  0  0  0  0  0
    0.0527    0.8860   -0.8025 H   0  0  0  0  0  0  0  0  0  0  0  0
  1  2  1  0  0  0  0
  2  3  1  0  0  0  0
  3  4  1  0  0  0  0
  4  5  1  0  0  0  0
  5  6  2  0  0  0  0
  6  7  4  0  0  0  0
  7  8  2  0  0  0  0
  8  9  4  0  0  0  0
  9 10  4  0  0  0  0
 10 11  2  0  0  0  0
 11 12  4  0  0  0  0
 12 13  2  0  0  0  0
  5 14  4  0  0  0  0
  9 14  4  0  0  0  0
 13 14  4  0  0  0  0
  1 16  1  0  0  0  0
  1 17  1  0  0  0  0
  1 18  1  0  0  0  0
  2 19  1  0  0  0  0
  2 20  1  0  0  0  0
  3 21  1  0  0  0  0
  3 22  1  0  0  0  0
  6 23  1  0  0  0  0
  7 24  1  0  0  0  0
  8 25  1  0  0  0  0
 10 26  1  0  0  0  0
 11 27  1  0  0  0  0
 12 28  1  0  0  0  0
 13 29  1  0  0  0  0
M  END
