 xtb: 6.5.1 (fef0646)
          01242316573D

 18 16  0     0  0            999 V2000
    0.0584   -1.6414   -0.0802 N   0  0  0  0  0  0  0  0  0  0  0  0
    1.0748   -1.2173    0.9261 C   0  0  0  0  0  0  0  0  0  0  0  0
    1.7937    0.0941    0.5674 C   0  0  0  0  0  0  0  0  0  0  0  0
    2.5812   -0.0351   -0.7365 C   0  0  0  0  0  0  0  0  0  0  0  0
    0.8194    1.2707    0.5055 C   0  0  0  0  0  0  0  0  0  0  0  0
   -2.5554    0.7109   -0.4399 Cl  0  0  0  0  0  0  0  0  0  0  0  0
   -0.3979   -2.5257    0.1863 H   0  0  0  0  0  0  0  0  0  0  0  0
    0.4846   -1.7807   -1.0065 H   0  0  0  0  0  0  0  0  0  0  0  0
   -0.6858   -0.9309   -0.1855 H   0  0  0  0  0  0  0  0  0  0  0  0
    1.8154   -2.0164    1.0482 H   0  0  0  0  0  0  0  0  0  0  0  0
    0.5909   -1.1119    1.9040 H   0  0  0  0  0  0  0  0  0  0  0  0
    2.5180    0.3031    1.3756 H   0  0  0  0  0  0  0  0  0  0  0  0
    1.9115   -0.1844   -1.5834 H   0  0  0  0  0  0  0  0  0  0  0  0
    3.2704   -0.8804   -0.7069 H   0  0  0  0  0  0  0  0  0  0  0  0
    3.1636    0.8646   -0.9422 H   0  0  0  0  0  0  0  0  0  0  0  0
    0.2405    1.3613    1.4259 H   0  0  0  0  0  0  0  0  0  0  0  0
    0.1150    1.1494   -0.3171 H   0  0  0  0  0  0  0  0  0  0  0  0
    1.3421    2.2149    0.3444 H   0  0  0  0  0  0  0  0  0  0  0  0
  1  2  1  0  0  0  0
  2  3  1  0  0  0  0
  3  4  1  0  0  0  0
  3  5  1  0  0  0  0
  1  7  1  0  0  0  0
  1  8  1  0  0  0  0
  1  9  1  0  0  0  0
  2 10  1  0  0  0  0
  2 11  1  0  0  0  0
  3 12  1  0  0  0  0
  4 13  1  0  0  0  0
  4 14  1  0  0  0  0
  4 15  1  0  0  0  0
  5 16  1  0  0  0  0
  5 17  1  0  0  0  0
  5 18  1  0  0  0  0
M  END
