  16

 N         -0.1966056905       -1.2798356537       -0.4096782000
 C          1.2171968088       -0.8183071279       -0.3974174679
 C          1.7082931301       -0.3000245708        0.9765375816
 C          2.2793924891        0.9502367136        0.2661902622
 C          1.4309410746        0.6009138008       -0.9791519330
 Cl        -2.1591286416        1.1955022724        1.0565882996
 H         -0.3081684110       -2.1544673004        0.1256687289
 H         -0.5275231935       -1.4427274042       -1.3739154326
 H         -0.8131838178       -0.5655981275        0.0190575893
 H          1.9035679632       -1.5612766690       -0.8374372856
 H          2.4582366960       -0.9384051264        1.4639580423
 H          0.8805868799       -0.0824420618        1.6634592489
 H          3.3621899939        0.8953399280        0.0870423265
 H          2.0184926250        1.9058145008        0.7431549508
 H          1.9766203369        0.6260774635       -1.9327012800
 H          0.4950399518        1.1685551979       -1.0541022188
          16
        -21.07081907
 N          0.3495565010       -1.7031735435       -0.0022551728
 C          1.4935118667       -0.7532381257       -0.0100559885
 C          1.4228030255        0.3392544182        1.0851784497
 C          1.7351246907        1.4004318675        0.0035598239
 C          1.3930231181        0.3565386276       -1.0856885667
 Cl        -2.5162760900        0.2652768949        0.0036086523
 H          0.3725567637       -2.3098103313        0.8318099246
 H          0.3553074022       -2.3029171587       -0.8424912870
 H         -0.5461459929       -1.1819708367        0.0081724633
 H          2.4675794376       -1.2707328780       -0.0273877770
 H          2.1821835099        0.2449237817        1.8738483427
 H          0.4204891694        0.4305731832        1.5227108221
 H          2.7875550311        1.7163581591       -0.0083774409
 H          1.0723528797        2.2775193696        0.0198978532
 H          2.1304630535        0.2749267107       -1.8964383961
 H          0.3792101650        0.4546599246       -1.4938464727
