18
0.0
N           -0.61051  -1.88544   0.29265
C            0.67930  -1.48240  -0.34126
C            1.24397  -0.20301   0.26353
C            2.55934   0.23658  -0.38140
C            3.11354   1.51670   0.22638
Cl          -2.80154   0.83426  -0.05472
H           -1.00581  -2.73471  -0.13430
H           -1.30880  -1.12801   0.19964
H           -0.48589  -2.06397   1.29815
H            0.53561  -1.34778  -1.42001
H            1.41123  -2.29333  -0.24530
H            1.38811  -0.33893   1.34175
H            0.50352   0.60102   0.17652
H            2.40857   0.36529  -1.46116
H            3.29508  -0.57344  -0.29330
H            2.40902   2.34336   0.11659
H            4.05219   1.82133  -0.24176
H            3.30369   1.39689   1.29460
