18
 xtb: 6.5.1 (fef0646)
N           -0.70698624688473       -1.76325329072954        0.26938605182016
C            0.62582276712111       -1.44637546392897       -0.33549123364806
C            1.23261947964169       -0.18525280914243        0.26942434784602
C            2.55110390242739        0.23612034588025       -0.38064246153063
C            3.11761564535142        1.51337007421811        0.22271269529298
Cl          -2.67964769064684        0.70574057457861       -0.04309980776489
H           -1.04210204486078       -2.69629210085380       -0.14142670702369
H           -1.32694451230892       -1.08082679124618        0.18848063352981
H           -0.52085264578448       -2.03193547414000        1.29261438460144
H            0.52955600672848       -1.33836527020417       -1.41983127198895
H            1.38404801100462       -2.29257899666787       -0.23630756431465
H            1.38578701274400       -0.33622900751340        1.34298362304780
H            0.50467691698092        0.61059760517570        0.18087285584749
H            2.40575504207934        0.36471795121734       -1.46096820318579
H            3.29043276173722       -0.57554797616579       -0.29295631830545
H            2.41224235024565        2.34410544016440        0.11497780583475
H            4.05410557218257        1.81773585558523       -0.24312788107861
H            3.30466385867550        1.39637293075798        1.29362586401237
