18
 xtb: 6.5.1 (fef0646)
N           -0.52196826612964       -1.99036931535599        0.30370828695688
C            0.74453456639386       -1.53588061367273       -0.33908222603246
C            1.27099179171046       -0.23839367783530        0.26315541325745
C            2.57353197780164        0.23666504808826       -0.38404406041063
C            3.09719828377946        1.52870552443045        0.22629964821043
Cl          -2.93015442764162        0.96618487311431       -0.06255898476547
H           -0.97557400689073       -2.76578206330593       -0.13200651661152
H           -1.29045750602769       -1.16271341231661        0.20555353779989
H           -0.45797779898714       -2.09314576415176        1.30061238948202
H            0.55163396719137       -1.36467498988625       -1.41915518768408
H            1.43786998378271       -2.30191817849486       -0.24588712684342
H            1.39764310286964       -0.34725827203085        1.34165236654875
H            0.50504441992143        0.58500617587665        0.17616958300243
H            2.41087795813202        0.36523955704298       -1.46167572021029
H            3.30522071362461       -0.56808290449822       -0.29536545924841
H            2.39817694523963        2.34182099797001        0.11804311288641
H            4.04478189593204        1.83211324931126       -0.24240754494490
H            3.30092048095103        1.40075452880796        1.29426159462274
