48
0.0
N           -7.54981  -0.09633   1.88689
C           -8.12987   0.93036   0.98062
C           -7.50763   0.86428  -0.41195
C           -6.02577   0.99157  -0.37813
C           -5.33844   2.16309  -0.37491
C           -3.93055   1.99804  -0.31889
C           -3.53333   0.69182  -0.27673
C           -2.16856   0.23635  -0.21482
C           -1.75945  -1.06614  -0.18542
C           -0.35138  -1.24038  -0.12538
C            0.26316  -2.59583  -0.08736
C            0.34557  -0.04603  -0.10911
C            1.77996   0.11407  -0.05600
C            2.47625   1.30752  -0.03015
C            1.86728   2.57622  -0.05247
N            1.32938   3.60506  -0.07266
C            3.90618   1.14530   0.02249
C            4.78170   2.24672   0.05642
N            5.53271   3.13171   0.08624
C            4.31814  -0.17262   0.03652
C            5.68314  -0.65128   0.08619
C            6.09231  -1.96877   0.09590
C            5.19016  -3.15270   0.05396
C            7.51184  -2.11393   0.15037
C            8.18202  -0.94256   0.18155
S            7.09303   0.38346   0.14428
S            2.91839  -1.19321  -0.01522
S           -0.78936   1.28073  -0.16484
S           -4.92657  -0.35249  -0.30653
Cl          -7.29458  -2.72416  -0.28869
H           -7.57695  -1.02412   1.42625
H           -8.04639  -0.16199   2.78996
H           -6.55725   0.10646   2.08152
H           -7.97384   1.92559   1.41347
H           -9.21724   0.79760   0.91843
H           -7.92569   1.64148  -1.06293
H           -7.76416  -0.09015  -0.88502
H           -5.82238   3.12759  -0.40789
H           -3.23171   2.82064  -0.30956
H           -2.45258  -1.89239  -0.20768
H            0.91445  -2.74971  -0.94867
H           -0.49912  -3.37576  -0.10104
H            0.85805  -2.72577   0.81752
H            5.75820  -4.08302   0.07274
H            4.58701  -3.14752  -0.85500
H            4.51541  -3.15570   0.91098
H            7.99747  -3.07859   0.16450
H            9.25005  -0.83436   0.22322
