 xtb: 6.5.1 (fef0646)
          01242310063D

 48 50  0     0  0            999 V2000
   -7.5498   -0.0963    1.8869 N   0  0  0  0  0  0  0  0  0  0  0  0
   -8.1299    0.9304    0.9806 C   0  0  0  0  0  0  0  0  0  0  0  0
   -7.5076    0.8643   -0.4119 C   0  0  0  0  0  0  0  0  0  0  0  0
   -6.0258    0.9916   -0.3781 C   0  0  0  0  0  0  0  0  0  0  0  0
   -5.3384    2.1631   -0.3749 C   0  0  0  0  0  0  0  0  0  0  0  0
   -3.9305    1.9981   -0.3189 C   0  0  0  0  0  0  0  0  0  0  0  0
   -3.5333    0.6918   -0.2767 C   0  0  0  0  0  0  0  0  0  0  0  0
   -2.1686    0.2364   -0.2148 C   0  0  0  0  0  0  0  0  0  0  0  0
   -1.7595   -1.0661   -0.1854 C   0  0  0  0  0  0  0  0  0  0  0  0
   -0.3514   -1.2404   -0.1254 C   0  0  0  0  0  0  0  0  0  0  0  0
    0.2631   -2.5958   -0.0874 C   0  0  0  0  0  0  0  0  0  0  0  0
    0.3456   -0.0460   -0.1091 C   0  0  0  0  0  0  0  0  0  0  0  0
    1.7800    0.1141   -0.0560 C   0  0  0  0  0  0  0  0  0  0  0  0
    2.4763    1.3075   -0.0302 C   0  0  0  0  0  0  0  0  0  0  0  0
    1.8673    2.5762   -0.0525 C   0  0  0  0  0  0  0  0  0  0  0  0
    1.3294    3.6051   -0.0727 N   0  0  0  0  0  0  0  0  0  0  0  0
    3.9062    1.1453    0.0225 C   0  0  0  0  0  0  0  0  0  0  0  0
    4.7817    2.2467    0.0564 C   0  0  0  0  0  0  0  0  0  0  0  0
    5.5327    3.1317    0.0862 N   0  0  0  0  0  0  0  0  0  0  0  0
    4.3181   -0.1726    0.0365 C   0  0  0  0  0  0  0  0  0  0  0  0
    5.6831   -0.6513    0.0862 C   0  0  0  0  0  0  0  0  0  0  0  0
    6.0923   -1.9688    0.0959 C   0  0  0  0  0  0  0  0  0  0  0  0
    5.1901   -3.1527    0.0539 C   0  0  0  0  0  0  0  0  0  0  0  0
    7.5118   -2.1140    0.1503 C   0  0  0  0  0  0  0  0  0  0  0  0
    8.1820   -0.9426    0.1815 C   0  0  0  0  0  0  0  0  0  0  0  0
    7.0930    0.3834    0.1443 S   0  0  0  0  0  0  0  0  0  0  0  0
    2.9184   -1.1932   -0.0152 S   0  0  0  0  0  0  0  0  0  0  0  0
   -0.7894    1.2807   -0.1648 S   0  0  0  0  0  0  0  0  0  0  0  0
   -4.9266   -0.3525   -0.3065 S   0  0  0  0  0  0  0  0  0  0  0  0
   -7.2946   -2.7241   -0.2887 Cl  0  0  0  0  0  0  0  0  0  0  0  0
   -7.5770   -1.0241    1.4263 H   0  0  0  0  0  0  0  0  0  0  0  0
   -8.0464   -0.1619    2.7900 H   0  0  0  0  0  0  0  0  0  0  0  0
   -6.5572    0.1065    2.0815 H   0  0  0  0  0  0  0  0  0  0  0  0
   -7.9738    1.9256    1.4135 H   0  0  0  0  0  0  0  0  0  0  0  0
   -9.2172    0.7976    0.9185 H   0  0  0  0  0  0  0  0  0  0  0  0
   -7.9257    1.6415   -1.0629 H   0  0  0  0  0  0  0  0  0  0  0  0
   -7.7642   -0.0901   -0.8850 H   0  0  0  0  0  0  0  0  0  0  0  0
   -5.8224    3.1276   -0.4079 H   0  0  0  0  0  0  0  0  0  0  0  0
   -3.2317    2.8207   -0.3096 H   0  0  0  0  0  0  0  0  0  0  0  0
   -2.4526   -1.8924   -0.2077 H   0  0  0  0  0  0  0  0  0  0  0  0
    0.9144   -2.7497   -0.9487 H   0  0  0  0  0  0  0  0  0  0  0  0
   -0.4991   -3.3758   -0.1010 H   0  0  0  0  0  0  0  0  0  0  0  0
    0.8580   -2.7258    0.8175 H   0  0  0  0  0  0  0  0  0  0  0  0
    5.7582   -4.0831    0.0727 H   0  0  0  0  0  0  0  0  0  0  0  0
    4.5870   -3.1475   -0.8550 H   0  0  0  0  0  0  0  0  0  0  0  0
    4.5154   -3.1557    0.9110 H   0  0  0  0  0  0  0  0  0  0  0  0
    7.9975   -3.0786    0.1645 H   0  0  0  0  0  0  0  0  0  0  0  0
    9.2500   -0.8344    0.2232 H   0  0  0  0  0  0  0  0  0  0  0  0
  1  2  1  0  0  0  0
  2  3  1  0  0  0  0
  3  4  1  0  0  0  0
  4  5  2  0  0  0  0
  5  6  4  0  0  0  0
  6  7  2  0  0  0  0
  7  8  1  0  0  0  0
  8  9  4  0  0  0  0
  9 10  4  0  0  0  0
 10 11  1  0  0  0  0
 10 12  4  0  0  0  0
 12 13  1  0  0  0  0
 13 14  4  0  0  0  0
 14 15  1  0  0  0  0
 15 16  3  0  0  0  0
 14 17  1  0  0  0  0
 17 18  1  0  0  0  0
 18 19  3  0  0  0  0
 17 20  4  0  0  0  0
 20 21  1  0  0  0  0
 21 22  4  0  0  0  0
 22 23  1  0  0  0  0
 22 24  4  0  0  0  0
 24 25  2  0  0  0  0
 21 26  1  0  0  0  0
 25 26  1  0  0  0  0
 13 27  1  0  0  0  0
 20 27  1  0  0  0  0
  8 28  1  0  0  0  0
 12 28  1  0  0  0  0
  4 29  1  0  0  0  0
  7 29  1  0  0  0  0
  1 31  1  0  0  0  0
  1 32  1  0  0  0  0
  1 33  1  0  0  0  0
  2 34  1  0  0  0  0
  2 35  1  0  0  0  0
  3 36  1  0  0  0  0
  3 37  1  0  0  0  0
  5 38  1  0  0  0  0
  6 39  1  0  0  0  0
  9 40  1  0  0  0  0
 11 41  1  0  0  0  0
 11 42  1  0  0  0  0
 11 43  1  0  0  0  0
 23 44  1  0  0  0  0
 23 45  1  0  0  0  0
 23 46  1  0  0  0  0
 24 47  1  0  0  0  0
 25 48  1  0  0  0  0
M  END
