  21

 N          3.7341501982       -0.8695085543       -0.2912311588
 C          2.5096427013       -0.0668508096        0.0114198489
 C          1.6940919057       -0.7922134340        1.0748516430
 C          2.9061664164        1.3221278328        0.4547992641
 C          2.4568202618        2.4327350568       -0.2469352839
 C          2.8058385895        3.7088826780        0.1606644750
 C          3.6123294632        3.8864714195        1.2720174838
 C          4.0635625921        2.7833142780        1.9780745059
 C          3.7121558501        1.5084716198        1.5729319509
 H          3.4743326143       -1.8192804989       -0.5833034769
 H          4.3213575498       -0.9369784999        0.5488112566
 H          4.2852978136       -0.4285486368       -1.0369569618
 H          1.9206484792        0.0097534378       -0.9059692378
 H          2.2611578320       -0.9144560952        1.9928450361
 H          1.3729449066       -1.7676128256        0.7205021150
 H          0.8055010935       -0.2151254459        1.3119143968
 H          1.8248792912        2.3085499068       -1.1134026842
 H          2.4511208309        4.5671858377       -0.3898226672
 H          3.8870792079        4.8817614346        1.5880728079
 H          4.6886069498        2.9209644075        2.8473721780
 H          4.0622354527        0.6694368910        2.1544345083
