23
 xtb: 6.5.1 (fef0646)
N           -2.93330501594007       -1.52698451559552        0.63190587605416
C           -2.07565755611208       -2.07751572784744       -0.45787879074807
C           -0.82795224954589       -1.28461615019940       -0.62967639446258
C            0.18556797648811       -1.34185279903225        0.23224386487484
C            1.38432337180921       -0.50106922991692        0.13318817156864
C            2.63200522786317       -0.99381692441264        0.51357642636264
C            3.75772931110449       -0.20092697056212        0.43024605126450
C            3.65722546095855        1.09974453936601       -0.02424290522934
C            2.42745619010212        1.60659221111113       -0.39778427566521
C            1.30085959752341        0.81425094153419       -0.32146753912273
Cl          -3.05606023723704        1.82750407525952       -0.09867997842699
H           -3.83746744094501       -2.07217994599427        0.71055753845937
H           -3.13897995032153       -0.56674694642242        0.49674001312497
H           -2.46298625219044       -1.64910730434374        1.55873295746315
H           -2.64274208216646       -2.09672662301005       -1.39429967836946
H           -1.79667191191033       -3.12137570813119       -0.26338587192043
H           -0.82898881169936       -0.51862596216481       -1.40461584281667
H            0.16973547067917       -2.08451391246364        0.98787903439310
H            2.69568359749949       -1.99796892502871        0.89521524642000
H            4.70754977450337       -0.58991610362108        0.77510764466278
H            4.54745935824789        1.71512306259545       -0.06644963456136
H            2.37225689604146        2.61346621595879       -0.78012750145007
H            0.35948288974371        1.21413878044516       -0.64322993223814
