 xtb: 6.5.1 (fef0646)
          01242314563D

 24 24  0     0  0            999 V2000
    3.3154   -0.5553   -1.1857 N   0  0  0  0  0  0  0  0  0  0  0  0
    2.5233   -0.0764   -0.0275 C   0  0  0  0  0  0  0  0  0  0  0  0
    2.9231   -0.7844    1.2688 C   0  0  0  0  0  0  0  0  0  0  0  0
    2.5667   -2.2740    1.2407 C   0  0  0  0  0  0  0  0  0  0  0  0
    2.9447   -2.9420    2.5617 C   0  0  0  0  0  0  0  0  0  0  0  0
    2.2401   -2.2627    3.7319 C   0  0  0  0  0  0  0  0  0  0  0  0
    2.5879   -0.7772    3.7661 C   0  0  0  0  0  0  0  0  0  0  0  0
    2.2120   -0.1098    2.4459 C   0  0  0  0  0  0  0  0  0  0  0  0
    3.0467   -0.0520   -2.0385 H   0  0  0  0  0  0  0  0  0  0  0  0
    3.1527   -1.5580   -1.3296 H   0  0  0  0  0  0  0  0  0  0  0  0
    4.3172   -0.4090   -1.0147 H   0  0  0  0  0  0  0  0  0  0  0  0
    1.4652   -0.2522   -0.2219 H   0  0  0  0  0  0  0  0  0  0  0  0
    2.6796    0.9961    0.0878 H   0  0  0  0  0  0  0  0  0  0  0  0
    4.0013   -0.6833    1.4268 H   0  0  0  0  0  0  0  0  0  0  0  0
    3.0928   -2.7956    0.4402 H   0  0  0  0  0  0  0  0  0  0  0  0
    1.4925   -2.3901    1.0845 H   0  0  0  0  0  0  0  0  0  0  0  0
    4.0252   -2.8794    2.7112 H   0  0  0  0  0  0  0  0  0  0  0  0
    2.6757   -3.9998    2.5337 H   0  0  0  0  0  0  0  0  0  0  0  0
    2.5339   -2.7363    4.6709 H   0  0  0  0  0  0  0  0  0  0  0  0
    1.1589   -2.3812    3.6279 H   0  0  0  0  0  0  0  0  0  0  0  0
    3.6592   -0.6616    3.9471 H   0  0  0  0  0  0  0  0  0  0  0  0
    2.0609   -0.2916    4.5897 H   0  0  0  0  0  0  0  0  0  0  0  0
    2.4768    0.9480    2.4892 H   0  0  0  0  0  0  0  0  0  0  0  0
    1.1312   -0.1805    2.3096 H   0  0  0  0  0  0  0  0  0  0  0  0
  1  2  1  0  0  0  0
  2  3  1  0  0  0  0
  3  4  1  0  0  0  0
  4  5  1  0  0  0  0
  5  6  1  0  0  0  0
  6  7  1  0  0  0  0
  3  8  1  0  0  0  0
  7  8  1  0  0  0  0
  1  9  1  0  0  0  0
  1 10  1  0  0  0  0
  1 11  1  0  0  0  0
  2 12  1  0  0  0  0
  2 13  1  0  0  0  0
  3 14  1  0  0  0  0
  4 15  1  0  0  0  0
  4 16  1  0  0  0  0
  5 17  1  0  0  0  0
  5 18  1  0  0  0  0
  6 19  1  0  0  0  0
  6 20  1  0  0  0  0
  7 21  1  0  0  0  0
  7 22  1  0  0  0  0
  8 23  1  0  0  0  0
  8 24  1  0  0  0  0
M  CHG  1   1   1
M  END
