21
 xtb: 6.5.1 (fef0646)
N           -3.28199034915499       -1.21233720645948       -0.92860460011999
C           -3.24924509174822        0.19751767695906       -0.40157086603667
C           -2.29617440789731        0.38228443339087        0.79204394445419
C           -0.84903264660831        0.23793075870406        0.44579757925750
C           -0.06001716512697        1.36364828519199        0.23251507040722
F           -0.60470745570812        2.57875149860769        0.29438728072113
C            1.29454259411298        1.23161076356644       -0.06269470922902
F            2.04137368262405        2.31445579449808       -0.25998611490761
C            1.86384403888870       -0.03176282473469       -0.15218664736067
F            3.15884659431888       -0.16058594967114       -0.43146182451784
C            1.07863874131159       -1.16086844816102        0.04264176198142
F            1.61731207782418       -2.37242080012606       -0.06637572520989
C           -0.27668296858607       -1.02491534770755        0.33518049158881
F           -1.04680265238482       -2.10146701528712        0.45850127845047
H           -2.41936650194867       -1.53928431039217       -1.27632341091223
H           -4.03357599836734       -1.29936693645138       -1.66210361506321
H           -3.60027478240501       -1.84776461979971       -0.13195653209346
H           -4.24479853228427        0.55242625884004       -0.16907021802571
H           -2.88223807056564        0.84283232466368       -1.24775990202389
H           -2.54900042322291       -0.35860510345645        1.56587766294022
H           -2.44496564331678        1.36773937431560        1.24811083459903
