 xtb: 6.5.1 (fef0646)
          02032318253D

 21 21  0     0  0            999 V2000
   -3.3496   -1.2159   -0.8998 N   0  0  0  0  0  0  0  0  0  0  0  0
   -3.2228    0.2055   -0.4299 C   0  0  0  0  0  0  0  0  0  0  0  0
   -2.2972    0.3753    0.7881 C   0  0  0  0  0  0  0  0  0  0  0  0
   -0.8461    0.2341    0.4539 C   0  0  0  0  0  0  0  0  0  0  0  0
   -0.0595    1.3617    0.2381 C   0  0  0  0  0  0  0  0  0  0  0  0
   -0.6064    2.5750    0.3003 F   0  0  0  0  0  0  0  0  0  0  0  0
    1.2948    1.2331   -0.0607 C   0  0  0  0  0  0  0  0  0  0  0  0
    2.0376    2.3186   -0.2598 F   0  0  0  0  0  0  0  0  0  0  0  0
    1.8685   -0.0280   -0.1541 C   0  0  0  0  0  0  0  0  0  0  0  0
    3.1639   -0.1529   -0.4365 F   0  0  0  0  0  0  0  0  0  0  0  0
    1.0864   -1.1587    0.0414 C   0  0  0  0  0  0  0  0  0  0  0  0
    1.6257   -2.3696   -0.0708 F   0  0  0  0  0  0  0  0  0  0  0  0
   -0.2676   -1.0247    0.3384 C   0  0  0  0  0  0  0  0  0  0  0  0
   -1.0281   -2.1111    0.4508 F   0  0  0  0  0  0  0  0  0  0  0  0
   -2.4299   -1.6029   -1.1408 H   0  0  0  0  0  0  0  0  0  0  0  0
   -3.9513   -1.2827   -1.7286 H   0  0  0  0  0  0  0  0  0  0  0  0
   -3.7497   -1.8072   -0.1628 H   0  0  0  0  0  0  0  0  0  0  0  0
   -4.2324    0.5791   -0.1952 H   0  0  0  0  0  0  0  0  0  0  0  0
   -2.8510    0.8274   -1.2585 H   0  0  0  0  0  0  0  0  0  0  0  0
   -2.5528   -0.3627    1.5614 H   0  0  0  0  0  0  0  0  0  0  0  0
   -2.4459    1.3647    1.2490 H   0  0  0  0  0  0  0  0  0  0  0  0
  1  2  1  0  0  0  0
  2  3  1  0  0  0  0
  3  4  1  0  0  0  0
  4  5  4  0  0  0  0
  5  6  1  0  0  0  0
  5  7  4  0  0  0  0
  7  8  1  0  0  0  0
  7  9  4  0  0  0  0
  9 10  1  0  0  0  0
  9 11  4  0  0  0  0
 11 12  1  0  0  0  0
  4 13  4  0  0  0  0
 11 13  4  0  0  0  0
 13 14  1  0  0  0  0
  1 15  1  0  0  0  0
  1 16  1  0  0  0  0
  1 17  1  0  0  0  0
  2 18  1  0  0  0  0
  2 19  1  0  0  0  0
  3 20  1  0  0  0  0
  3 21  1  0  0  0  0
M  CHG  1   1   1
M  END
