25

N          2.70903       -1.82590       -3.53941
C          2.31947       -0.60280       -2.78650
C          2.92627       -0.62954       -1.38109
C          4.43854       -0.67153       -1.39794
C          5.12028       -1.83030       -1.31947
C          6.62203       -1.91394       -1.29753
C          7.29216       -0.57920       -0.98036
C          6.64388        0.55879       -1.75963
C          5.14830        0.66505       -1.45225
H          2.31561       -1.83449       -4.48749
H          2.40096       -2.68036       -3.05805
H          3.73429       -1.88044       -3.62734
H          1.22673       -0.59461       -2.74520
H          2.66864        0.25179       -3.37380
H          2.53337       -1.49456       -0.83171
H          2.59191        0.25523       -0.82503
H          4.60179       -2.78263       -1.23667
H          6.95749       -2.27495       -2.27772
H          6.93419       -2.65855       -0.55731
H          8.36071       -0.63738       -1.21623
H          7.21330       -0.37577        0.09527
H          6.78450        0.39017       -2.83508
H          7.13774        1.50692       -1.51949
H          4.68289        1.30870       -2.20739
H          5.01361        1.16137       -0.48243
