 xtb: 6.5.1 (fef0646)
          01232314103D

 25 25  0     0  0            999 V2000
    3.0135   -1.7659   -3.4511 N   0  0  0  0  0  0  0  0  0  0  0  0
    2.3836   -0.6030   -2.7640 C   0  0  0  0  0  0  0  0  0  0  0  0
    2.8692   -0.6135   -1.3099 C   0  0  0  0  0  0  0  0  0  0  0  0
    4.3777   -0.6561   -1.3083 C   0  0  0  0  0  0  0  0  0  0  0  0
    5.0341   -1.8217   -1.3137 C   0  0  0  0  0  0  0  0  0  0  0  0
    6.5256   -1.9427   -1.3600 C   0  0  0  0  0  0  0  0  0  0  0  0
    7.2151   -0.6030   -1.1138 C   0  0  0  0  0  0  0  0  0  0  0  0
    6.5189    0.4991   -1.9039 C   0  0  0  0  0  0  0  0  0  0  0  0
    5.0859    0.6610   -1.4018 C   0  0  0  0  0  0  0  0  0  0  0  0
    3.1065   -1.6345   -4.4620 H   0  0  0  0  0  0  0  0  0  0  0  0
    2.4904   -2.6299   -3.2747 H   0  0  0  0  0  0  0  0  0  0  0  0
    3.9704   -1.8440   -2.9754 H   0  0  0  0  0  0  0  0  0  0  0  0
    1.2981   -0.6656   -2.8259 H   0  0  0  0  0  0  0  0  0  0  0  0
    2.7139    0.3103   -3.2600 H   0  0  0  0  0  0  0  0  0  0  0  0
    2.4566   -1.4787   -0.7892 H   0  0  0  0  0  0  0  0  0  0  0  0
    2.5118    0.2842   -0.8089 H   0  0  0  0  0  0  0  0  0  0  0  0
    4.5004   -2.7565   -1.1707 H   0  0  0  0  0  0  0  0  0  0  0  0
    6.8211   -2.3425   -2.3367 H   0  0  0  0  0  0  0  0  0  0  0  0
    6.8471   -2.6733   -0.6157 H   0  0  0  0  0  0  0  0  0  0  0  0
    8.2643   -0.6706   -1.3988 H   0  0  0  0  0  0  0  0  0  0  0  0
    7.1708   -0.3622   -0.0510 H   0  0  0  0  0  0  0  0  0  0  0  0
    6.5169    0.2434   -2.9666 H   0  0  0  0  0  0  0  0  0  0  0  0
    7.0551    1.4403   -1.7902 H   0  0  0  0  0  0  0  0  0  0  0  0
    4.5301    1.3483   -2.0442 H   0  0  0  0  0  0  0  0  0  0  0  0
    5.1006    1.1079   -0.4034 H   0  0  0  0  0  0  0  0  0  0  0  0
  1  2  1  0  0  0  0
  2  3  1  0  0  0  0
  3  4  1  0  0  0  0
  4  5  2  0  0  0  0
  5  6  1  0  0  0  0
  6  7  1  0  0  0  0
  7  8  1  0  0  0  0
  4  9  1  0  0  0  0
  8  9  1  0  0  0  0
  1 10  1  0  0  0  0
  1 11  1  0  0  0  0
  1 12  1  0  0  0  0
  2 13  1  0  0  0  0
  2 14  1  0  0  0  0
  3 15  1  0  0  0  0
  3 16  1  0  0  0  0
  5 17  1  0  0  0  0
  6 18  1  0  0  0  0
  6 19  1  0  0  0  0
  7 20  1  0  0  0  0
  7 21  1  0  0  0  0
  8 22  1  0  0  0  0
  8 23  1  0  0  0  0
  9 24  1  0  0  0  0
  9 25  1  0  0  0  0
M  CHG  1   1   1
M  END
