21
 xtb: 6.5.1 (fef0646)
N           -0.55028935554290       -0.10513749066761       -0.66512738554818
C           -0.03270301220561       -1.11708860100551        0.30704120703148
C            1.40302734478408       -1.59227069962038        0.02963709128158
C            2.47926898967163       -0.86464031250240        0.84494714148806
C            2.62690180373169        0.62601805023351        0.52920234374102
C            3.10446460436470        0.89489890635704       -0.89033795209496
Cl          -3.53949224499545        0.81552289653294        0.00784832567724
H           -1.44650379218761        0.18403927926670       -0.50599940165702
H           -0.44955565624711       -0.50806907728389       -1.65448827807454
H            0.12124387244460        0.71888629450028       -0.69842827579586
H           -0.69088404018914       -1.98404635461369        0.27241136057830
H           -0.08020173875615       -0.72653895016514        1.30874227982569
H            1.66180088591004       -1.53364205052463       -1.02906954245489
H            1.50939562846836       -2.68709724977797        0.26051166771646
H            3.47930527826741       -1.34682045622862        0.70674126487010
H            2.28227860613504       -0.99509330609299        1.92208932810989
H            3.33355513310700        1.09060768450381        1.24014683470054
H            1.67895400516255        1.12498697770536        0.71488158675149
H            3.22631049269031        1.95891359176774       -1.08855544661418
H            2.40705585923357        0.50123298760615       -1.62880183193610
H            4.07262891625776        0.41522307581179       -1.08210743436641
