18
0.49
N           -0.09182   1.38834  -1.00921
C            1.23978   1.11109  -0.40430
C            1.66144  -0.36071  -0.52454
C            3.10345  -0.55224  -0.04898
C            0.71055  -1.28179   0.23993
Cl          -2.67582  -0.19616   0.75522
H           -0.12351   1.07761  -1.99418
H           -0.32219   2.39499  -0.99261
H           -0.84930   0.89252  -0.50390
H            1.23648   1.40102   0.65245
H            1.99580   1.74668  -0.88101
H            1.61204  -0.62956  -1.59405
H            3.79872   0.07669  -0.60894
H            3.42739  -1.58917  -0.15861
H            3.19874  -0.28864   1.00591
H            1.02780  -2.32459   0.17480
H           -0.30935  -1.22369  -0.14409
H            0.68136  -1.01391   1.29746
