 xtb: 6.5.1 (fef0646)
          01242317013D

 22 21  0     0  0            999 V2000
   -4.3377    0.6537    0.6926 N   0  0  0  0  0  0  0  0  0  0  0  0
   -2.9229    0.2951    0.3874 C   0  0  0  0  0  0  0  0  0  0  0  0
   -1.9390    1.3672    0.8422 C   0  0  0  0  0  0  0  0  0  0  0  0
   -0.5119    1.0119    0.5440 C   0  0  0  0  0  0  0  0  0  0  0  0
    0.2426    0.2899    1.4577 C   0  0  0  0  0  0  0  0  0  0  0  0
    1.5477   -0.0655    1.1686 C   0  0  0  0  0  0  0  0  0  0  0  0
    2.1117    0.2902   -0.0381 C   0  0  0  0  0  0  0  0  0  0  0  0
    3.9068   -0.1985   -0.4340 Br  0  0  0  0  0  0  0  0  0  0  0  0
    1.3689    0.9996   -0.9576 C   0  0  0  0  0  0  0  0  0  0  0  0
    0.0635    1.3563   -0.6705 C   0  0  0  0  0  0  0  0  0  0  0  0
   -6.4938   -1.9200   -0.3852 Cl  0  0  0  0  0  0  0  0  0  0  0  0
   -4.4719    0.7903    1.7030 H   0  0  0  0  0  0  0  0  0  0  0  0
   -4.9954   -0.0841    0.3835 H   0  0  0  0  0  0  0  0  0  0  0  0
   -4.6045    1.5289    0.2228 H   0  0  0  0  0  0  0  0  0  0  0  0
   -2.8076    0.1222   -0.6889 H   0  0  0  0  0  0  0  0  0  0  0  0
   -2.6711   -0.6601    0.8627 H   0  0  0  0  0  0  0  0  0  0  0  0
   -2.0538    1.5441    1.9165 H   0  0  0  0  0  0  0  0  0  0  0  0
   -2.1844    2.3223    0.3657 H   0  0  0  0  0  0  0  0  0  0  0  0
   -0.1997    0.0048    2.3972 H   0  0  0  0  0  0  0  0  0  0  0  0
    2.1362   -0.6237    1.8782 H   0  0  0  0  0  0  0  0  0  0  0  0
    1.8182    1.2684   -1.8994 H   0  0  0  0  0  0  0  0  0  0  0  0
   -0.5183    1.9039   -1.3923 H   0  0  0  0  0  0  0  0  0  0  0  0
  1  2  1  0  0  0  0
  2  3  1  0  0  0  0
  3  4  1  0  0  0  0
  4  5  4  0  0  0  0
  5  6  4  0  0  0  0
  6  7  4  0  0  0  0
  7  8  1  0  0  0  0
  7  9  4  0  0  0  0
  4 10  4  0  0  0  0
  9 10  4  0  0  0  0
  1 12  1  0  0  0  0
  1 13  1  0  0  0  0
  1 14  1  0  0  0  0
  2 15  1  0  0  0  0
  2 16  1  0  0  0  0
  3 17  1  0  0  0  0
  3 18  1  0  0  0  0
  5 19  1  0  0  0  0
  6 20  1  0  0  0  0
  9 21  1  0  0  0  0
 10 22  1  0  0  0  0
M  END
