  27

 N         -3.3237465573       -0.6349918043        1.2144741547
 C         -2.8933614227        0.1094593648       -0.0179887325
 C         -3.3641615323       -0.5965009573       -1.2835181672
 C         -1.4005936667        0.3420753721       -0.0168707004
 C         -0.8907229768        1.6411574647       -0.0096395013
 C          0.4686836634        1.8775886066       -0.0049584851
 C         -0.5165191438       -0.7255719583       -0.0153541242
 C          0.8760904946       -0.5262911278       -0.0142151356
 C          1.3828490993        0.8100147441       -0.0078890976
 C          2.7755528907        1.0103071507       -0.0028436847
 C          3.6397496214       -0.0651238237       -0.0059016021
 C          3.1485334256       -1.3627662415       -0.0140217170
 C          1.7887648881       -1.5972215513       -0.0180853860
 H         -3.0116406243       -0.1509979744        2.0686733876
 H         -2.9239030753       -1.5835065599        1.2286920530
 H         -4.3489059705       -0.7284971290        1.2595869564
 H         -3.3785176845        1.0991231604        0.0211038759
 H         -2.9292349270       -1.5920306365       -1.3558216277
 H         -3.0753981149       -0.0444016036       -2.1780050411
 H         -4.4480397172       -0.7120455110       -1.2942188133
 H         -1.5738329129        2.4733402424       -0.0073141234
 H          0.8418044179        2.8873110524        0.0015896083
 H         -0.8979255028       -1.7305174641       -0.0140237528
 H          3.1625677219        2.0149392956        0.0037083153
 H          4.7047581411        0.1033832390       -0.0017494561
 H          3.8356823319       -2.1936508873       -0.0172006996
 H          1.4148862343       -2.6067397262       -0.0244066186
          27
        -35.32257887
 N         -3.5353211079       -0.0955256224       -1.1985216820
 C         -2.8054546182       -0.5712252176        0.0260194615
 C         -3.5377419803       -0.1647493906        1.2989150404
 C         -1.3695996165       -0.1015212448        0.0202060079
 C         -1.0670542276        1.2592666211        0.0236479292
 C          0.2393131531        1.7035066529        0.0184777471
 C         -0.3299940551       -1.0207244788        0.0063816492
 C          1.0148478607       -0.6077893955       -0.0000146444
 C          1.3080379551        0.7908903906        0.0080518695
 C          2.6529757794        1.2047711832        0.0046584732
 C          3.6732883368        0.2764686734       -0.0076866436
 C          3.3893753161       -1.0818396576       -0.0174757880
 C          2.0825770200       -1.5242327853       -0.0138303213
 H         -3.6102173115        0.9309386776       -1.2060303488
 H         -4.4918264361       -0.4770264866       -1.2403562564
 H         -3.0428966503       -0.3784817184       -2.0580721703
 H         -2.7885650338       -1.6729247331       -0.0208416580
 H         -3.6008167249        0.9193130771        1.3793164473
 H         -3.0246092806       -0.5314286097        2.1881723415
 H         -4.5562020474       -0.5530657723        1.3128560198
 H         -1.8703306924        1.9752796472        0.0308240849
 H          0.4516064757        2.7587920606        0.0231185389
 H         -0.5512773701       -2.0731896352       -0.0002920894
 H          2.8792245774        2.2573236491        0.0119069682
 H          4.6993226888        0.6078965346       -0.0097009036
 H          4.1965657180       -1.7966271572       -0.0280458696
 H          1.8697748387       -2.5796068658       -0.0216254034
