  27

 N          1.6696560947        0.7377425493       -1.1353662898
 C          2.4169768138       -0.0405256618       -0.0640110635
 C          3.5951525428        0.7979932501        0.3998002655
 C          2.8177816255       -1.3719759388       -0.6463019691
 C          2.3385395600       -2.5581479130       -0.0587413726
 C          2.6944070883       -3.7750130434       -0.5683835256
 C          3.6402446881       -1.4392710250       -1.7452241516
 C          4.0218069133       -2.6782375244       -2.2939479902
 C          3.5394091198       -3.8729600852       -1.6924487023
 C          3.9264195282       -5.1151231167       -2.2360949947
 C          4.7544052565       -5.1701182780       -3.3226738209
 C          5.2308167125       -3.9893343683       -3.9162797140
 C          4.8722559998       -2.7691111969       -3.4160750572
 H          0.8072283002        0.2483401207       -1.4020193040
 H          2.2768692290        0.7986490506       -1.9644865542
 H          1.4416190004        1.6863723042       -0.8132631983
 H          1.7205239078       -0.1924954557        0.7649603288
 H          4.2950146179        0.9839268141       -0.4103498049
 H          4.1297588808        0.2592677260        1.1770754873
 H          3.2671250964        1.7472226184        0.8174143360
 H          1.6960747815       -2.4973653041        0.8067527039
 H          2.3301175752       -4.6821202090       -0.1113105352
 H          4.0344589863       -0.5438187832       -2.2105919262
 H          3.5585881938       -6.0199101435       -1.7763805963
 H          5.0488765638       -6.1230277311       -3.7338705488
 H          5.8846983415       -4.0540421260       -4.7721352774
 H          5.2408645822       -1.8600765292       -3.8689767248
