26
 xtb: 6.5.1 (fef0646)
N           -5.07330821026849       -1.56084302007527       -0.34526103962655
C           -5.33210995918947       -0.32455748439893        0.44892854682121
C           -4.68820652035286        0.91903774566545       -0.16926760118238
C           -3.19904741005503        0.94110312801182       -0.08369291337018
C           -2.43489229574815        2.05840929063657        0.03695088754010
C           -1.03581039752968        1.80526995050920        0.07657673463498
C           -0.70733753226511        0.48318823669482       -0.01511152884010
C            0.63030114688583       -0.05810763837060       -0.00465663219790
C            0.94910354766680       -1.38413986275587       -0.07780156449649
C            2.34637197735597       -1.63866281934128       -0.05291744125594
C            3.09397300228122       -0.51528117124122        0.03775364719701
S            2.09833139223880        0.87845016225668        0.09020980934192
S           -2.17068658341646       -0.45868346315654       -0.13587408123905
Cl           6.50843891962008       -0.43526455155997        0.10564935454518
H           -5.47773417190992       -1.52179409942171       -1.24731015892454
H           -5.43998986883364       -2.41326571296190        0.16123577664920
H           -4.05206418617400       -1.69435799947441       -0.41942503651680
H           -4.95276647719633       -0.44317496617845        1.48961113925100
H           -6.41430395900994       -0.19061682789555        0.56578991053386
H           -5.08552523607718        1.81754619873603        0.30031770505584
H           -4.98669048364746        0.96946726884098       -1.22226437849254
H           -2.86803011153589        3.04690930172950        0.09238619249283
H           -0.30390892933654        2.58988657296216        0.16212305837571
H            0.21378172625051       -2.14727829900964       -0.19700477400697
H            2.77909237970063       -2.60931470082879       -0.14615526199465
H            4.16898912567224       -0.45647242921350        0.06790467635137
