29
 xtb: 6.5.1 (fef0646)
N            4.04284686333165       -1.29222166049816       -1.09905938494476
C            2.65978871776235       -1.74558957800096       -0.76063325033570
C            1.68151234395166       -0.57845442946936       -0.73959954082267
O            0.36877775267115       -0.97301387698059       -0.34776767483964
C           -0.57584906223802        0.04602999706322       -0.34471080171943
C           -0.32117942524180        1.35837249241861       -0.70593685101322
C           -1.32418116529508        2.32536482425351       -0.69260219616488
C           -2.59727994942688        2.00971981498512       -0.31394850560730
C           -2.91923789688039        0.69370584504128        0.08000180228340
C           -4.22123512398080        0.33148088647779        0.49244814666346
C           -4.49767391515431       -0.94727722279836        0.87790527630693
C           -3.49400581933105       -1.92235924248729        0.86739991398544
C           -2.22828567241235       -1.60355294579607        0.46822627323973
C           -1.90702737902786       -0.29457705899477        0.06692083316281
Cl           4.85467076409673        1.18737840104506        0.98221337979483
H            4.04327045431425       -0.96807875556999       -2.08521367996020
H            4.69685880448022       -2.12880394998240       -1.08323987148679
H            4.36762012333268       -0.60130177370253       -0.49472546218489
H            2.66304726170986       -2.21308945358087        0.26219123322222
H            2.28982090679114       -2.55135925019026       -1.40831570830307
H            1.61949302263991       -0.16588917255017       -1.75785817246072
H            2.02515341712943        0.19182974515518       -0.07360983494626
H            0.67409337964075        1.63689065811516       -1.01070328007030
H           -1.07470260378659        3.33781970208596       -0.96205477322629
H           -3.35070523543830        2.77207549653880       -0.27060047373516
H           -4.98458216468682        1.09261595068264        0.52254383341855
H           -5.49941434570513       -1.20772014681772        1.17961417913814
H           -3.74118158904040       -2.93608546780377        1.13299663689206
H           -1.46427765600201       -2.35866118005939        0.42458877473147
