 xtb: 6.5.1 (fef0646)
          01242317143D

 29 29  0     0  0            999 V2000
    4.0245   -1.3676   -1.1365 N   0  0  0  0  0  0  0  0  0  0  0  0
    2.6494   -1.7723   -0.7283 C   0  0  0  0  0  0  0  0  0  0  0  0
    1.6765   -0.6016   -0.7570 C   0  0  0  0  0  0  0  0  0  0  0  0
    0.3640   -0.9866   -0.3537 O   0  0  0  0  0  0  0  0  0  0  0  0
   -0.5750    0.0399   -0.3450 C   0  0  0  0  0  0  0  0  0  0  0  0
   -0.3138    1.3521   -0.7012 C   0  0  0  0  0  0  0  0  0  0  0  0
   -1.3084    2.3269   -0.6672 C   0  0  0  0  0  0  0  0  0  0  0  0
   -2.5801    2.0177   -0.2787 C   0  0  0  0  0  0  0  0  0  0  0  0
   -2.9115    0.6989    0.0972 C   0  0  0  0  0  0  0  0  0  0  0  0
   -4.2156    0.3400    0.5058 C   0  0  0  0  0  0  0  0  0  0  0  0
   -4.5032   -0.9441    0.8632 C   0  0  0  0  0  0  0  0  0  0  0  0
   -3.5084   -1.9275    0.8301 C   0  0  0  0  0  0  0  0  0  0  0  0
   -2.2396   -1.6108    0.4394 C   0  0  0  0  0  0  0  0  0  0  0  0
   -1.9075   -0.2970    0.0647 C   0  0  0  0  0  0  0  0  0  0  0  0
    4.8686    1.2897    0.9987 Cl  0  0  0  0  0  0  0  0  0  0  0  0
    4.0323   -1.0119   -2.1042 H   0  0  0  0  0  0  0  0  0  0  0  0
    4.6913   -2.1486   -1.0784 H   0  0  0  0  0  0  0  0  0  0  0  0
    4.3675   -0.6094   -0.5276 H   0  0  0  0  0  0  0  0  0  0  0  0
    2.6670   -2.2019    0.2793 H   0  0  0  0  0  0  0  0  0  0  0  0
    2.2797   -2.5706   -1.3811 H   0  0  0  0  0  0  0  0  0  0  0  0
    1.6182   -0.1838   -1.7676 H   0  0  0  0  0  0  0  0  0  0  0  0
    2.0234    0.1923   -0.0870 H   0  0  0  0  0  0  0  0  0  0  0  0
    0.6759    1.6333   -1.0120 H   0  0  0  0  0  0  0  0  0  0  0  0
   -1.0685    3.3386   -0.9521 H   0  0  0  0  0  0  0  0  0  0  0  0
   -3.3436    2.7764   -0.2550 H   0  0  0  0  0  0  0  0  0  0  0  0
   -4.9810    1.0969    0.5314 H   0  0  0  0  0  0  0  0  0  0  0  0
   -5.5017   -1.2063    1.1736 H   0  0  0  0  0  0  0  0  0  0  0  0
   -3.7481   -2.9389    1.1150 H   0  0  0  0  0  0  0  0  0  0  0  0
   -1.4695   -2.3626    0.4114 H   0  0  0  0  0  0  0  0  0  0  0  0
  1  2  1  0  0  0  0
  2  3  1  0  0  0  0
  3  4  1  0  0  0  0
  4  5  1  0  0  0  0
  5  6  4  0  0  0  0
  6  7  4  0  0  0  0
  7  8  2  0  0  0  0
  8  9  4  0  0  0  0
  9 10  4  0  0  0  0
 10 11  2  0  0  0  0
 11 12  4  0  0  0  0
 12 13  2  0  0  0  0
  5 14  4  0  0  0  0
  9 14  4  0  0  0  0
 13 14  4  0  0  0  0
  1 16  1  0  0  0  0
  1 17  1  0  0  0  0
  1 18  1  0  0  0  0
  2 19  1  0  0  0  0
  2 20  1  0  0  0  0
  3 21  1  0  0  0  0
  3 22  1  0  0  0  0
  6 23  1  0  0  0  0
  7 24  1  0  0  0  0
  8 25  1  0  0  0  0
 10 26  1  0  0  0  0
 11 27  1  0  0  0  0
 12 28  1  0  0  0  0
 13 29  1  0  0  0  0
M  END
