50
1.321
N           -8.73436   0.57807   1.20854
C           -9.01179  -0.54406   0.26681
C           -8.43208  -0.30337  -1.12969
C           -6.94332  -0.36759  -1.19021
C           -6.21617  -0.82747  -2.24260
C           -4.80975  -0.76059  -2.05134
C           -4.43629  -0.24292  -0.84273
C           -3.08516  -0.05753  -0.38664
C           -2.71713   0.48291   0.81527
C           -1.31893   0.55681   1.03020
C           -0.74515   1.17896   2.25520
C           -0.58287   0.03315  -0.01642
C            0.86003  -0.08832  -0.13571
C            1.46817   0.06698  -1.36827
C            2.85072  -0.01096  -1.54702
C            3.72309  -0.26357  -0.50466
C            5.16401  -0.33455  -0.71191
C            5.92813   0.49192  -1.50744
C            5.40746   1.65631  -2.27736
C            7.30675   0.12953  -1.51996
C            7.60412  -0.93429  -0.74114
S            6.19110  -1.53289   0.03951
C            3.15175  -0.48635   0.79779
N            3.79667  -0.76737   1.91349
S            2.69107  -0.96361   3.10761
N            1.34228  -0.68613   2.21835
C            1.71129  -0.40373   0.98460
S           -1.66139  -0.48587  -1.28889
S           -5.86620   0.15885   0.06910
Cl           2.43907   3.01492   0.49721
H           -7.71976   0.73885   1.25378
H           -9.07318   0.38299   2.15954
H           -9.17063   1.44977   0.88261
H          -10.09559  -0.70126   0.20781
H           -8.59923  -1.47485   0.67277
H           -8.75668   0.67640  -1.49449
H           -8.84264  -1.03302  -1.83718
H           -6.67067  -1.20374  -3.14590
H           -4.09389  -1.08393  -2.79053
H           -3.43659   0.83368   1.53713
H           -0.63243   0.43912   3.04702
H           -1.38631   1.97839   2.62671
H            0.23685   1.60650   2.05218
H            0.84101   0.27259  -2.21787
H            3.25476   0.10662  -2.53700
H            4.53164   2.08845  -1.79327
H            5.13094   1.36245  -3.29016
H            6.16102   2.44043  -2.35165
H            8.04115   0.66734  -2.09960
H            8.58118  -1.35944  -0.61289
