 xtb: 6.5.1 (fef0646)
          01242317033D

 50 53  0     0  0            999 V2000
   -8.7344    0.5781    1.2086 N   0  0  0  0  0  0  0  0  0  0  0  0
   -9.0118   -0.5440    0.2668 C   0  0  0  0  0  0  0  0  0  0  0  0
   -8.4321   -0.3033   -1.1297 C   0  0  0  0  0  0  0  0  0  0  0  0
   -6.9433   -0.3676   -1.1902 C   0  0  0  0  0  0  0  0  0  0  0  0
   -6.2162   -0.8274   -2.2426 C   0  0  0  0  0  0  0  0  0  0  0  0
   -4.8098   -0.7606   -2.0513 C   0  0  0  0  0  0  0  0  0  0  0  0
   -4.4363   -0.2429   -0.8427 C   0  0  0  0  0  0  0  0  0  0  0  0
   -3.0852   -0.0575   -0.3866 C   0  0  0  0  0  0  0  0  0  0  0  0
   -2.7171    0.4829    0.8153 C   0  0  0  0  0  0  0  0  0  0  0  0
   -1.3189    0.5568    1.0302 C   0  0  0  0  0  0  0  0  0  0  0  0
   -0.7451    1.1790    2.2552 C   0  0  0  0  0  0  0  0  0  0  0  0
   -0.5829    0.0332   -0.0164 C   0  0  0  0  0  0  0  0  0  0  0  0
    0.8600   -0.0883   -0.1357 C   0  0  0  0  0  0  0  0  0  0  0  0
    1.4682    0.0670   -1.3683 C   0  0  0  0  0  0  0  0  0  0  0  0
    2.8507   -0.0110   -1.5470 C   0  0  0  0  0  0  0  0  0  0  0  0
    3.7231   -0.2636   -0.5047 C   0  0  0  0  0  0  0  0  0  0  0  0
    5.1640   -0.3346   -0.7119 C   0  0  0  0  0  0  0  0  0  0  0  0
    5.9281    0.4919   -1.5075 C   0  0  0  0  0  0  0  0  0  0  0  0
    5.4075    1.6563   -2.2774 C   0  0  0  0  0  0  0  0  0  0  0  0
    7.3067    0.1295   -1.5200 C   0  0  0  0  0  0  0  0  0  0  0  0
    7.6041   -0.9343   -0.7412 C   0  0  0  0  0  0  0  0  0  0  0  0
    6.1911   -1.5329    0.0395 S   0  0  0  0  0  0  0  0  0  0  0  0
    3.1518   -0.4864    0.7978 C   0  0  0  0  0  0  0  0  0  0  0  0
    3.7967   -0.7674    1.9135 N   0  0  0  0  0  0  0  0  0  0  0  0
    2.6911   -0.9636    3.1076 S   0  0  0  0  0  0  0  0  0  0  0  0
    1.3423   -0.6861    2.2183 N   0  0  0  0  0  0  0  0  0  0  0  0
    1.7113   -0.4037    0.9846 C   0  0  0  0  0  0  0  0  0  0  0  0
   -1.6614   -0.4859   -1.2889 S   0  0  0  0  0  0  0  0  0  0  0  0
   -5.8662    0.1589    0.0691 S   0  0  0  0  0  0  0  0  0  0  0  0
    2.4391    3.0149    0.4972 Cl  0  0  0  0  0  0  0  0  0  0  0  0
   -7.7198    0.7389    1.2538 H   0  0  0  0  0  0  0  0  0  0  0  0
   -9.0732    0.3830    2.1596 H   0  0  0  0  0  0  0  0  0  0  0  0
   -9.1706    1.4498    0.8826 H   0  0  0  0  0  0  0  0  0  0  0  0
  -10.0956   -0.7012    0.2078 H   0  0  0  0  0  0  0  0  0  0  0  0
   -8.5992   -1.4748    0.6728 H   0  0  0  0  0  0  0  0  0  0  0  0
   -8.7567    0.6764   -1.4945 H   0  0  0  0  0  0  0  0  0  0  0  0
   -8.8427   -1.0330   -1.8371 H   0  0  0  0  0  0  0  0  0  0  0  0
   -6.6707   -1.2037   -3.1459 H   0  0  0  0  0  0  0  0  0  0  0  0
   -4.0939   -1.0839   -2.7905 H   0  0  0  0  0  0  0  0  0  0  0  0
   -3.4366    0.8337    1.5371 H   0  0  0  0  0  0  0  0  0  0  0  0
   -0.6324    0.4391    3.0470 H   0  0  0  0  0  0  0  0  0  0  0  0
   -1.3863    1.9784    2.6267 H   0  0  0  0  0  0  0  0  0  0  0  0
    0.2369    1.6065    2.0522 H   0  0  0  0  0  0  0  0  0  0  0  0
    0.8410    0.2726   -2.2179 H   0  0  0  0  0  0  0  0  0  0  0  0
    3.2548    0.1066   -2.5370 H   0  0  0  0  0  0  0  0  0  0  0  0
    4.5316    2.0884   -1.7933 H   0  0  0  0  0  0  0  0  0  0  0  0
    5.1309    1.3624   -3.2902 H   0  0  0  0  0  0  0  0  0  0  0  0
    6.1610    2.4404   -2.3517 H   0  0  0  0  0  0  0  0  0  0  0  0
    8.0411    0.6673   -2.0996 H   0  0  0  0  0  0  0  0  0  0  0  0
    8.5812   -1.3595   -0.6129 H   0  0  0  0  0  0  0  0  0  0  0  0
  1  2  1  0  0  0  0
  2  3  1  0  0  0  0
  3  4  1  0  0  0  0
  4  5  2  0  0  0  0
  5  6  4  0  0  0  0
  6  7  4  0  0  0  0
  7  8  1  0  0  0  0
  8  9  4  0  0  0  0
  9 10  4  0  0  0  0
 10 11  1  0  0  0  0
 10 12  4  0  0  0  0
 12 13  1  0  0  0  0
 13 14  4  0  0  0  0
 14 15  4  0  0  0  0
 15 16  4  0  0  0  0
 16 17  1  0  0  0  0
 17 18  2  0  0  0  0
 18 19  1  0  0  0  0
 18 20  4  0  0  0  0
 20 21  2  0  0  0  0
 17 22  1  0  0  0  0
 21 22  1  0  0  0  0
 16 23  1  0  0  0  0
 23 24  4  0  0  0  0
 24 25  2  0  0  0  0
 25 26  2  0  0  0  0
 13 27  1  0  0  0  0
 23 27  1  0  0  0  0
 26 27  4  0  0  0  0
  8 28  1  0  0  0  0
 12 28  1  0  0  0  0
  4 29  1  0  0  0  0
  7 29  1  0  0  0  0
  1 31  1  0  0  0  0
  1 32  1  0  0  0  0
  1 33  1  0  0  0  0
  2 34  1  0  0  0  0
  2 35  1  0  0  0  0
  3 36  1  0  0  0  0
  3 37  1  0  0  0  0
  5 38  1  0  0  0  0
  6 39  1  0  0  0  0
  9 40  1  0  0  0  0
 11 41  1  0  0  0  0
 11 42  1  0  0  0  0
 11 43  1  0  0  0  0
 14 44  1  0  0  0  0
 15 45  1  0  0  0  0
 19 46  1  0  0  0  0
 19 47  1  0  0  0  0
 19 48  1  0  0  0  0
 20 49  1  0  0  0  0
 21 50  1  0  0  0  0
M  END
