26
 xtb: 6.5.1 (fef0646)
N           -3.30691774667448       -1.04410854353479        1.23959995850492
C           -1.82135362720244       -1.02050091565338        1.10508247853649
C           -1.31626993271605        0.31557910703146        0.56553754918226
C            0.16860284292034        0.34342544465287        0.35207827893241
C            1.02001686978661        0.83692208886845        1.33031642208036
C            2.38508587906324        0.84093287049374        1.14648548645319
C            2.95237808057159        0.33779165266260       -0.02700567905744
O            4.32528253830186        0.30013633137442       -0.29441053440406
C            5.14316555386617        0.81841704777275        0.73337869266917
C            2.08712497305917       -0.16650256704930       -1.00238108979119
C            0.72428595246245       -0.16452269101471       -0.81472979296974
Cl          -4.62430374382276       -0.43431170922120       -1.78906410257191
H           -3.61975437771913       -1.93765386687118        1.67488978799868
H           -3.75451114609523       -0.87285093747655        0.39445650504311
H           -3.60155376546650       -0.29541132890409        1.94797201460728
H           -1.48936627303115       -1.83550062534479        0.49885717362790
H           -1.31856834954466       -1.18260295512149        2.10693212753473
H           -1.61508538659938        1.14233294554061        1.19893656798640
H           -1.82552665002265        0.49719249756359       -0.40340059957147
H            0.59089106193305        1.17540048141380        2.25219550413705
H            3.01322761494184        1.19009115081993        1.93828475646508
H            4.99554034523322        0.20687319810458        1.64965921508302
H            4.90897837570557        1.84956704157196        0.93999463163624
H            6.18428556805777        0.72248457718472        0.43895653884009
H            2.51849655828199       -0.50953124305614       -1.93271359098271
H            0.07616796490628       -0.51706867568313       -1.60856684336569
