 xtb: 6.5.1 (fef0646)
          01242317073D

 26 25  0     0  0            999 V2000
   -3.2817   -1.0329    1.3311 N   0  0  0  0  0  0  0  0  0  0  0  0
   -1.8013   -1.0004    1.1562 C   0  0  0  0  0  0  0  0  0  0  0  0
   -1.3204    0.3099    0.5436 C   0  0  0  0  0  0  0  0  0  0  0  0
    0.1650    0.3444    0.3334 C   0  0  0  0  0  0  0  0  0  0  0  0
    1.0129    0.8024    1.3315 C   0  0  0  0  0  0  0  0  0  0  0  0
    2.3789    0.8062    1.1563 C   0  0  0  0  0  0  0  0  0  0  0  0
    2.9505    0.3423   -0.0308 C   0  0  0  0  0  0  0  0  0  0  0  0
    4.3237    0.3113   -0.2943 O   0  0  0  0  0  0  0  0  0  0  0  0
    5.1391    0.7935    0.7518 C   0  0  0  0  0  0  0  0  0  0  0  0
    2.0888   -0.1260   -1.0260 C   0  0  0  0  0  0  0  0  0  0  0  0
    0.7249   -0.1272   -0.8455 C   0  0  0  0  0  0  0  0  0  0  0  0
   -4.6407   -0.4482   -1.8533 Cl  0  0  0  0  0  0  0  0  0  0  0  0
   -3.6067   -1.9284    1.7196 H   0  0  0  0  0  0  0  0  0  0  0  0
   -3.7521   -0.8910    0.4212 H   0  0  0  0  0  0  0  0  0  0  0  0
   -3.5945   -0.2807    1.9588 H   0  0  0  0  0  0  0  0  0  0  0  0
   -1.4846   -1.8381    0.5241 H   0  0  0  0  0  0  0  0  0  0  0  0
   -1.3070   -1.1613    2.1213 H   0  0  0  0  0  0  0  0  0  0  0  0
   -1.6194    1.1493    1.1800 H   0  0  0  0  0  0  0  0  0  0  0  0
   -1.8275    0.4793   -0.4120 H   0  0  0  0  0  0  0  0  0  0  0  0
    0.5877    1.1565    2.2555 H   0  0  0  0  0  0  0  0  0  0  0  0
    3.0107    1.1703    1.9462 H   0  0  0  0  0  0  0  0  0  0  0  0
    4.9970    0.1878    1.6475 H   0  0  0  0  0  0  0  0  0  0  0  0
    4.9044    1.8389    0.9587 H   0  0  0  0  0  0  0  0  0  0  0  0
    6.1831    0.7229    0.4425 H   0  0  0  0  0  0  0  0  0  0  0  0
    2.5201   -0.4892   -1.9424 H   0  0  0  0  0  0  0  0  0  0  0  0
    0.0772   -0.4988   -1.6217 H   0  0  0  0  0  0  0  0  0  0  0  0
  1  2  1  0  0  0  0
  2  3  1  0  0  0  0
  3  4  1  0  0  0  0
  4  5  4  0  0  0  0
  5  6  4  0  0  0  0
  6  7  4  0  0  0  0
  7  8  1  0  0  0  0
  8  9  1  0  0  0  0
  7 10  4  0  0  0  0
  4 11  4  0  0  0  0
 10 11  4  0  0  0  0
  1 13  1  0  0  0  0
  1 14  1  0  0  0  0
  1 15  1  0  0  0  0
  2 16  1  0  0  0  0
  2 17  1  0  0  0  0
  3 18  1  0  0  0  0
  3 19  1  0  0  0  0
  5 20  1  0  0  0  0
  6 21  1  0  0  0  0
  9 22  1  0  0  0  0
  9 23  1  0  0  0  0
  9 24  1  0  0  0  0
 10 25  1  0  0  0  0
 11 26  1  0  0  0  0
M  END
