 xtb: 6.5.1 (fef0646)
          01242310093D

 26 26  0     0  0            999 V2000
   -3.1917   -0.4328   -1.4363 N   0  0  0  0  0  0  0  0  0  0  0  0
   -3.2606    1.0362   -1.2053 C   0  0  0  0  0  0  0  0  0  0  0  0
   -2.6756    1.4434    0.1477 C   0  0  0  0  0  0  0  0  0  0  0  0
   -1.1956    1.2770    0.2457 C   0  0  0  0  0  0  0  0  0  0  0  0
   -0.3617    2.0653    0.9758 C   0  0  0  0  0  0  0  0  0  0  0  0
    1.0070    1.6779    0.9114 C   0  0  0  0  0  0  0  0  0  0  0  0
    1.2360    0.5815    0.1289 C   0  0  0  0  0  0  0  0  0  0  0  0
    2.5228   -0.0291   -0.1135 C   0  0  0  0  0  0  0  0  0  0  0  0
    2.7458   -1.1231   -0.9011 C   0  0  0  0  0  0  0  0  0  0  0  0
    4.1120   -1.5132   -0.9636 C   0  0  0  0  0  0  0  0  0  0  0  0
    4.9278   -0.7224   -0.2282 C   0  0  0  0  0  0  0  0  0  0  0  0
    4.0328    0.5245    0.5606 S   0  0  0  0  0  0  0  0  0  0  0  0
   -0.2751    0.0319   -0.5355 S   0  0  0  0  0  0  0  0  0  0  0  0
   -4.9468   -2.0397    1.0703 Cl  0  0  0  0  0  0  0  0  0  0  0  0
   -3.7267   -0.9469   -0.7108 H   0  0  0  0  0  0  0  0  0  0  0  0
   -2.2145   -0.7467   -1.3706 H   0  0  0  0  0  0  0  0  0  0  0  0
   -3.5570   -0.7089   -2.3626 H   0  0  0  0  0  0  0  0  0  0  0  0
   -4.3056    1.3625   -1.2837 H   0  0  0  0  0  0  0  0  0  0  0  0
   -2.7250    1.5601   -2.0061 H   0  0  0  0  0  0  0  0  0  0  0  0
   -3.1485    0.8529    0.9407 H   0  0  0  0  0  0  0  0  0  0  0  0
   -2.9264    2.4886    0.3670 H   0  0  0  0  0  0  0  0  0  0  0  0
   -0.7111    2.9067    1.5558 H   0  0  0  0  0  0  0  0  0  0  0  0
    1.7982    2.1964    1.4314 H   0  0  0  0  0  0  0  0  0  0  0  0
    1.9530   -1.6367   -1.4235 H   0  0  0  0  0  0  0  0  0  0  0  0
    4.4604   -2.3575   -1.5417 H   0  0  0  0  0  0  0  0  0  0  0  0
    5.9920   -0.8397   -0.1360 H   0  0  0  0  0  0  0  0  0  0  0  0
  1  2  1  0  0  0  0
  2  3  1  0  0  0  0
  3  4  1  0  0  0  0
  4  5  2  0  0  0  0
  5  6  4  0  0  0  0
  6  7  2  0  0  0  0
  7  8  1  0  0  0  0
  8  9  2  0  0  0  0
  9 10  4  0  0  0  0
 10 11  2  0  0  0  0
  8 12  1  0  0  0  0
 11 12  1  0  0  0  0
  4 13  1  0  0  0  0
  7 13  1  0  0  0  0
  1 15  1  0  0  0  0
  1 16  1  0  0  0  0
  1 17  1  0  0  0  0
  2 18  1  0  0  0  0
  2 19  1  0  0  0  0
  3 20  1  0  0  0  0
  3 21  1  0  0  0  0
  5 22  1  0  0  0  0
  6 23  1  0  0  0  0
  9 24  1  0  0  0  0
 10 25  1  0  0  0  0
 11 26  1  0  0  0  0
M  END
