  24

 N         -3.8037198967       -0.5008356340        0.8393034312
 C         -3.1131640809       -0.3668426840       -0.4805526609
 C         -1.6782431941        0.0299905200       -0.3346779645
 C         -1.3290276630        1.3746516358       -0.2139407253
 C         -0.0144100317        1.7610728242       -0.0542797412
 C         -0.6820276059       -0.9326288567       -0.2778294181
 C          0.6702281001       -0.5790894324       -0.1186998178
 C          1.0138220665        0.8036791691       -0.0035405063
 C          2.3658468490        1.1576628255        0.1584066315
 C          3.3454645329        0.1874910270        0.2040195697
 C          3.0128364296       -1.1547391131        0.0905067049
 C          1.6974709185       -1.5392915726       -0.0685175164
 H         -4.7928776609       -0.7724913805        0.7305916906
 H         -3.7793432145        0.3875548640        1.3613202307
 H         -3.3456236188       -1.2144421038        1.4249141316
 H         -3.6379306098        0.3712581834       -1.0975062511
 H         -3.1810732101       -1.3132321940       -1.0286478737
 H         -2.1044846577        2.1210584180       -0.2499691621
 H          0.2351033686        2.8047181640        0.0331231858
 H         -0.9458808997       -1.9719231570       -0.3595832932
 H          2.6309728724        2.1975637566        0.2465995419
 H          4.3777209460        0.4740051708        0.3285441736
 H          3.7890896578       -1.9025509543        0.1261914305
 H          1.4472769349       -2.5827416450       -0.1577301389
          24
        -32.15022623
 N         -3.8315352931        0.4651125306        0.8116263661
 C         -3.1130685494        0.3824418364       -0.4971497702
 C         -1.6799158586       -0.0164444881       -0.3383230828
 C         -1.3354646322       -1.3617283061       -0.2112429422
 C         -0.0228970466       -1.7512140017       -0.0428512866
 C         -0.6813582929        0.9438271933       -0.2793285814
 C          0.6691421182        0.5866828980       -0.1128572700
 C          1.0080098368       -0.7968059066        0.0083826076
 C          2.3586648173       -1.1547738695        0.1730992423
 C          3.3415123412       -0.1878200161        0.2154031650
 C          3.0134600942        1.1551368024        0.0965781298
 C          1.6995587328        1.5436394061       -0.0648457453
 H         -3.8197638696       -0.4433741197        1.2978636633
 H         -4.8175289105        0.7440259253        0.6924665462
 H         -3.3837227650        1.1529989860        1.4347471223
 H         -3.1726277542        1.3484390618       -1.0107950410
 H         -3.6219116547       -0.3333703330       -1.1523780982
 H         -2.1130058743       -2.1058931363       -0.2494470446
 H          0.2233597265       -2.7953127197        0.0485790655
 H         -0.9409184412        1.9838168521       -0.3664926883
 H          2.6198710716       -2.1953917704        0.2648038790
 H          4.3728638061       -0.4772377449        0.3407786280
 H          3.7924758156        1.9002074832        0.1295987729
 H          1.4528411623        2.5875340021       -0.1587615389
