  24

 N          1.1208171471        0.3406894169       -0.4761251657
 C          2.4859693919       -0.0895065091        0.0119703309
 C          2.8543360219       -1.3883081947       -0.6429777615
 C          2.3935434048       -2.5980821997       -0.0827220771
 C          2.7037596585       -3.7909985740       -0.6705753314
 C          3.6030200998       -1.4062373728       -1.7935884952
 C          3.9365568484       -2.6213300375       -2.4224515279
 C          3.4797653108       -3.8398392627       -1.8479127353
 C          3.8249489112       -5.0578583963       -2.4679077802
 C          4.5843232426       -5.0677096069       -3.6054806379
 C          5.0296553947       -3.8638303915       -4.1759232322
 C          4.7138794086       -2.6653951588       -3.5988540644
 H          0.8100153094        1.2122048466       -0.0292342018
 H          0.4431227747       -0.4063273533       -0.2731966025
 H          1.1514419780        0.4742991104       -1.4954023805
 H          2.4344588459       -0.1970619909        1.0960908738
 H          3.1986688108        0.6961479122       -0.2395589233
 H          1.8137733385       -2.5753026639        0.8289551659
 H          2.3631243999       -4.7177225233       -0.2347887671
 H          3.9681918340       -0.4847864761       -2.2259485995
 H          3.4811809928       -5.9811318027       -2.0263861757
 H          4.8450552556       -6.0027463009       -4.0760404606
 H          5.6255498277       -3.8930143137       -5.0749814054
 H          5.0591617924       -1.7377621574       -4.0310600455
