  12

 N         -1.4896857544       -0.0144007834       -0.1671889802
 C         -0.1505899829       -0.0331380713        0.4860244008
 C          0.9888545703        0.7693239882       -0.0994688496
 C          1.0057282905       -0.7397027158       -0.1832038311
 H         -2.0447287151        0.7884468058        0.1618352370
 H         -2.0147418454       -0.8732913062        0.0498121668
 H         -1.4110282262        0.0556035583       -1.1909568878
 H         -0.2114913705       -0.0940323693        1.5827310825
 H          1.6879263682        1.2649106711        0.5793147538
 H          0.7936246160        1.3457594410       -1.0056222054
 H          1.7161238920       -1.2920318801        0.4375096032
 H          0.8276631079       -1.2131846800       -1.1504683859
          12
        -12.94995759
 N         -1.5007888242       -0.0001500125        0.1570819369
 C         -0.1611278851        0.0003143383       -0.4945308507
 C          0.9861008636        0.7557795504        0.1358329873
 C          0.9864510979       -0.7559359395        0.1353777965
 H         -2.0390608236        0.8351716664       -0.1133467726
 H         -1.4204406172       -0.0048219459        1.1831131950
 H         -2.0422466718       -0.8311763146       -0.1201134624
 H         -0.2210562151        0.0011591155       -1.5930800842
 H          0.8058031014        1.2789495165        1.0770876925
 H          1.6903525301        1.2807750164       -0.5145336806
 H          0.8050137515       -1.2812477219        1.0751834622
 H          1.6914873533       -1.2786068799       -0.5159913127
