  12

 N          1.0429600000       -0.0240600000       -0.1773300000
 C          2.5001700000       -0.0155700000       -0.0561500000
 C          3.2727400000        0.7398600000       -1.0947100000
 C          3.2670100000       -0.7634700000       -1.1045300000
 H          0.6107100000        0.5580800000        0.5518900000
 H          0.6726200000       -0.9787400000       -0.0762000000
 H          0.7305800000        0.3376000000       -1.0881100000
 H          2.9048000000       -0.0420900000        0.9550100000
 H          4.1916400000        1.2339600000       -0.7901600000
 H          2.7622300000        1.2493100000       -1.9042800000
 H          4.1810500000       -1.2696300000       -0.8068600000
 H          2.7444900000       -1.2616200000       -1.9138900000
