27

N          1.11629       -0.47657       -0.52411
C          2.46434       -0.10180       -0.01416
C          3.38193       -1.31065       -0.18299
C          2.91152        1.17108       -0.69365
C          3.63328        1.17108       -1.89521
C          3.93696        2.37023       -2.54536
C          2.51180        2.41080       -0.15658
C          2.80024        3.62360       -0.80722
C          3.51711        3.60055       -2.02270
C          3.79009        4.80599       -2.68771
C          3.35628        6.02255       -2.16099
C          2.65586        6.04925       -0.95930
C          2.38261        4.85850       -0.28360
H          0.75065       -1.32405       -0.07635
H          1.14427       -0.63017       -1.53989
H          0.44806        0.28719       -0.36057
H          2.33671        0.08064        1.05983
H          3.45998       -1.63201       -1.22723
H          3.00387       -2.16522        0.38992
H          4.39140       -1.08720        0.17863
H          3.97794        0.25071       -2.36176
H          4.50343        2.33954       -3.47575
H          1.96013        2.44757        0.78342
H          4.33979        4.80964       -3.62705
H          3.56737        6.94987       -2.68913
H          2.32223        6.99920       -0.54804
H          1.83615        4.91032        0.65564
