 xtb: 6.5.1 (fef0646)
          01232318483D

 12 10  0     0  0            999 V2000
    1.0812   -0.2334   -0.2441 N   0  0  0  0  0  0  0  0  0  0  0  0
    2.5315   -0.4002   -0.1465 C   0  0  0  0  0  0  0  0  0  0  0  0
    2.9268   -0.6199    1.3059 C   0  0  0  0  0  0  0  0  0  0  0  0
    0.2330    2.0723    1.3557 Cl  0  0  0  0  0  0  0  0  0  0  0  0
    0.7897   -0.0710   -1.2015 H   0  0  0  0  0  0  0  0  0  0  0  0
    0.6412    0.9901    0.6122 H   0  0  0  0  0  0  0  0  0  0  0  0
    0.6012   -1.0537    0.1119 H   0  0  0  0  0  0  0  0  0  0  0  0
    2.9906    0.5178   -0.5202 H   0  0  0  0  0  0  0  0  0  0  0  0
    2.8900   -1.2382   -0.7616 H   0  0  0  0  0  0  0  0  0  0  0  0
    2.5787    0.2109    1.9122 H   0  0  0  0  0  0  0  0  0  0  0  0
    4.0068   -0.6937    1.3929 H   0  0  0  0  0  0  0  0  0  0  0  0
    2.4852   -1.5381    1.6875 H   0  0  0  0  0  0  0  0  0  0  0  0
  1  2  1  0  0  0  0
  2  3  1  0  0  0  0
  1  5  1  0  0  0  0
  4  6  1  0  0  0  0
  1  7  1  0  0  0  0
  2  8  1  0  0  0  0
  2  9  1  0  0  0  0
  3 10  1  0  0  0  0
  3 11  1  0  0  0  0
  3 12  1  0  0  0  0
M  END
