 xtb: 6.5.1 (fef0646)
          01242310103D

 27 27  0     0  0            999 V2000
   -3.7140   -0.2651    0.3648 N   0  0  0  0  0  0  0  0  0  0  0  0
   -2.2347   -0.1541    0.5331 C   0  0  0  0  0  0  0  0  0  0  0  0
   -1.4997   -0.1159   -0.8018 C   0  0  0  0  0  0  0  0  0  0  0  0
    0.0383   -0.0045   -0.7033 C   0  0  0  0  0  0  0  0  0  0  0  0
    0.6950   -1.2184   -0.0010 C   0  0  0  0  0  0  0  0  0  0  0  0
    2.2311   -1.1157   -0.0299 C   0  0  0  0  0  0  0  0  0  0  0  0
    2.7151    0.2021    0.6024 C   0  0  0  0  0  0  0  0  0  0  0  0
    2.0488    1.4224   -0.0585 C   0  0  0  0  0  0  0  0  0  0  0  0
    0.5140    1.3055   -0.0296 C   0  0  0  0  0  0  0  0  0  0  0  0
   -4.2032   -0.2902    1.2720 H   0  0  0  0  0  0  0  0  0  0  0  0
   -3.9672   -1.1229   -0.1471 H   0  0  0  0  0  0  0  0  0  0  0  0
   -4.0891    0.5334   -0.1676 H   0  0  0  0  0  0  0  0  0  0  0  0
   -1.8790   -0.9969    1.1361 H   0  0  0  0  0  0  0  0  0  0  0  0
   -2.0070    0.7457    1.1158 H   0  0  0  0  0  0  0  0  0  0  0  0
   -1.8854    0.7223   -1.3927 H   0  0  0  0  0  0  0  0  0  0  0  0
   -1.7607   -1.0134   -1.3736 H   0  0  0  0  0  0  0  0  0  0  0  0
    0.4366    0.0124   -1.7315 H   0  0  0  0  0  0  0  0  0  0  0  0
    0.3521   -2.1547   -0.4582 H   0  0  0  0  0  0  0  0  0  0  0  0
    0.3569   -1.2568    1.0396 H   0  0  0  0  0  0  0  0  0  0  0  0
    2.5811   -1.1722   -1.0674 H   0  0  0  0  0  0  0  0  0  0  0  0
    2.6853   -1.9777    0.4771 H   0  0  0  0  0  0  0  0  0  0  0  0
    3.8090    0.2799    0.5408 H   0  0  0  0  0  0  0  0  0  0  0  0
    2.4849    0.1977    1.6744 H   0  0  0  0  0  0  0  0  0  0  0  0
    2.3890    1.5049   -1.0977 H   0  0  0  0  0  0  0  0  0  0  0  0
    2.3745    2.3517    0.4281 H   0  0  0  0  0  0  0  0  0  0  0  0
    0.0419    2.1728   -0.5069 H   0  0  0  0  0  0  0  0  0  0  0  0
    0.1722    1.3186    1.0103 H   0  0  0  0  0  0  0  0  0  0  0  0
  1  2  1  0  0  0  0
  2  3  1  0  0  0  0
  3  4  1  0  0  0  0
  4  5  1  0  0  0  0
  5  6  1  0  0  0  0
  6  7  1  0  0  0  0
  7  8  1  0  0  0  0
  4  9  1  0  0  0  0
  8  9  1  0  0  0  0
  1 10  1  0  0  0  0
  1 11  1  0  0  0  0
  1 12  1  0  0  0  0
  2 13  1  0  0  0  0
  2 14  1  0  0  0  0
  3 15  1  0  0  0  0
  3 16  1  0  0  0  0
  4 17  1  0  0  0  0
  5 18  1  0  0  0  0
  5 19  1  0  0  0  0
  6 20  1  0  0  0  0
  6 21  1  0  0  0  0
  7 22  1  0  0  0  0
  7 23  1  0  0  0  0
  8 24  1  0  0  0  0
  8 25  1  0  0  0  0
  9 26  1  0  0  0  0
  9 27  1  0  0  0  0
M  CHG  1   1   1
M  END
