43
 xtb: 6.5.1 (fef0646)
N            4.90410067356930        0.31564927596224        0.37747641651802
C            4.59260161854161       -0.54684420070247       -0.79028192356711
C            4.07542191916517        0.31572681675969       -1.93333903865003
O            3.00338922654453        1.15635487300335       -1.51948889789103
C            1.78602337641629        0.53099793658811       -1.31120260115345
C            1.50348756372968       -0.79478181683704       -1.62127809449892
C            0.26144142575122       -1.34344904985632       -1.38109951343636
C           -0.77850839222837       -0.60931809430847       -0.81701744657539
C           -0.53708218916515        0.75268149912662       -0.47950537895081
C           -1.55528162196471        1.55810258237483        0.10910429266589
C           -1.26839639372316        2.88585596567329        0.39330931872831
C           -0.02136168817030        3.43355483330672        0.12804288419027
C            0.96707933725203        2.66543344340629       -0.42270163810716
C            0.73695068280424        1.32073278052763       -0.73617743705549
C           -2.09220014189343       -1.18905011533785       -0.57113587506814
C           -2.39622990633519       -2.50131283057925       -0.90764184252227
C           -3.65033487786520       -3.04736194276197       -0.66063496865022
C           -4.62767347355182       -2.29944131462769       -0.06980632520546
C           -4.38254925505178       -0.95911626804787        0.29087548064583
C           -5.38132796640559       -0.17374313751865        0.90111928374903
C           -5.12703459768403        1.12122518418023        1.24872756992113
C           -3.88249349528473        1.68799258441114        0.99614675742853
C           -2.86293281189787        0.96845888163486        0.39080692804546
C           -3.10706364019629       -0.39022885413728        0.03570087870767
Cl           5.89098388510082       -1.84032450624646        3.18348611719055
H            5.18999477391709       -0.29595031327639        1.21694801256536
H            4.08215962418529        0.83016708216423        0.66824999225785
H            5.66668575519159        0.93780523294249        0.19505372546527
H            3.82463317865235       -1.29334585985785       -0.50759907970003
H            5.46481567089817       -1.13440715004287       -1.09331524591870
H            3.78211349179228       -0.25278535899751       -2.80489050112276
H            4.87989404975012        0.99214536947733       -2.25269708556397
H            2.25820840492560       -1.39849580095356       -2.09062642485743
H            0.10068564517297       -2.36577907033089       -1.65903253006871
H           -2.01494800414162        3.50994727751854        0.85226641377557
H            0.17933531361605        4.46087421870791        0.39467343105411
H            1.94125232433508        3.08383888306359       -0.61376767944552
H           -1.63488310452518       -3.13349443176358       -1.33273059667477
H           -3.83079177422133       -4.08503026634799       -0.89168253798645
H           -5.58888821209658       -2.73189236950254        0.13882411226089
H           -6.35080955217775       -0.60745488686757        1.07542116252145
H           -5.91285936243843        1.72398657378504        1.67200981190974
H           -3.73428416802493        2.72269967267885        1.24290056450269
