 xtb: 6.5.1 (fef0646)
          01242317143D

 43 46  0     0  0            999 V2000
    4.9085    0.2609    0.4138 N   0  0  0  0  0  0  0  0  0  0  0  0
    4.5840   -0.5605   -0.7791 C   0  0  0  0  0  0  0  0  0  0  0  0
    4.0831    0.3215   -1.9150 C   0  0  0  0  0  0  0  0  0  0  0  0
    3.0054    1.1622   -1.5127 O   0  0  0  0  0  0  0  0  0  0  0  0
    1.7880    0.5376   -1.3136 C   0  0  0  0  0  0  0  0  0  0  0  0
    1.5016   -0.7839   -1.6379 C   0  0  0  0  0  0  0  0  0  0  0  0
    0.2609   -1.3351   -1.3948 C   0  0  0  0  0  0  0  0  0  0  0  0
   -0.7750   -0.6070   -0.8168 C   0  0  0  0  0  0  0  0  0  0  0  0
   -0.5344    0.7545   -0.4765 C   0  0  0  0  0  0  0  0  0  0  0  0
   -1.5527    1.5581    0.1145 C   0  0  0  0  0  0  0  0  0  0  0  0
   -1.2606    2.8795    0.4193 C   0  0  0  0  0  0  0  0  0  0  0  0
   -0.0109    3.4262    0.1629 C   0  0  0  0  0  0  0  0  0  0  0  0
    0.9736    2.6634   -0.4012 C   0  0  0  0  0  0  0  0  0  0  0  0
    0.7399    1.3230   -0.7300 C   0  0  0  0  0  0  0  0  0  0  0  0
   -2.0841   -1.1924   -0.5577 C   0  0  0  0  0  0  0  0  0  0  0  0
   -2.3781   -2.5125   -0.8689 C   0  0  0  0  0  0  0  0  0  0  0  0
   -3.6303   -3.0615   -0.6174 C   0  0  0  0  0  0  0  0  0  0  0  0
   -4.6162   -2.3076   -0.0498 C   0  0  0  0  0  0  0  0  0  0  0  0
   -4.3796   -0.9605    0.2901 C   0  0  0  0  0  0  0  0  0  0  0  0
   -5.3868   -0.1694    0.8781 C   0  0  0  0  0  0  0  0  0  0  0  0
   -5.1422    1.1331    1.2019 C   0  0  0  0  0  0  0  0  0  0  0  0
   -3.8958    1.6992    0.9559 C   0  0  0  0  0  0  0  0  0  0  0  0
   -2.8660    0.9722    0.3792 C   0  0  0  0  0  0  0  0  0  0  0  0
   -3.1043   -0.3906    0.0361 C   0  0  0  0  0  0  0  0  0  0  0  0
    5.8475   -1.8008    3.0944 Cl  0  0  0  0  0  0  0  0  0  0  0  0
    5.1950   -0.3197    1.2230 H   0  0  0  0  0  0  0  0  0  0  0  0
    4.0853    0.8129    0.6878 H   0  0  0  0  0  0  0  0  0  0  0  0
    5.6674    0.9246    0.2085 H   0  0  0  0  0  0  0  0  0  0  0  0
    3.8195   -1.2963   -0.5092 H   0  0  0  0  0  0  0  0  0  0  0  0
    5.4605   -1.1399   -1.0926 H   0  0  0  0  0  0  0  0  0  0  0  0
    3.7881   -0.2483   -2.8028 H   0  0  0  0  0  0  0  0  0  0  0  0
    4.8838    0.9945   -2.2417 H   0  0  0  0  0  0  0  0  0  0  0  0
    2.2568   -1.3936   -2.0991 H   0  0  0  0  0  0  0  0  0  0  0  0
    0.0998   -2.3624   -1.6664 H   0  0  0  0  0  0  0  0  0  0  0  0
   -2.0117    3.5068    0.8633 H   0  0  0  0  0  0  0  0  0  0  0  0
    0.1836    4.4573    0.4097 H   0  0  0  0  0  0  0  0  0  0  0  0
    1.9434    3.0831   -0.6065 H   0  0  0  0  0  0  0  0  0  0  0  0
   -1.6275   -3.1382   -1.3158 H   0  0  0  0  0  0  0  0  0  0  0  0
   -3.8226   -4.0911   -0.8732 H   0  0  0  0  0  0  0  0  0  0  0  0
   -5.5855   -2.7345    0.1445 H   0  0  0  0  0  0  0  0  0  0  0  0
   -6.3523   -0.6065    1.0686 H   0  0  0  0  0  0  0  0  0  0  0  0
   -5.9196    1.7293    1.6519 H   0  0  0  0  0  0  0  0  0  0  0  0
   -3.7406    2.7279    1.2253 H   0  0  0  0  0  0  0  0  0  0  0  0
  1  2  1  0  0  0  0
  2  3  1  0  0  0  0
  3  4  1  0  0  0  0
  4  5  1  0  0  0  0
  5  6  4  0  0  0  0
  6  7  4  0  0  0  0
  7  8  4  0  0  0  0
  8  9  4  0  0  0  0
  9 10  4  0  0  0  0
 10 11  4  0  0  0  0
 11 12  4  0  0  0  0
 12 13  2  0  0  0  0
  5 14  4  0  0  0  0
  9 14  4  0  0  0  0
 13 14  4  0  0  0  0
  8 15  1  0  0  0  0
 15 16  4  0  0  0  0
 16 17  4  0  0  0  0
 17 18  2  0  0  0  0
 18 19  4  0  0  0  0
 19 20  4  0  0  0  0
 20 21  2  0  0  0  0
 21 22  4  0  0  0  0
 10 23  1  0  0  0  0
 22 23  4  0  0  0  0
 15 24  4  0  0  0  0
 19 24  4  0  0  0  0
 23 24  4  0  0  0  0
  1 26  1  0  0  0  0
  1 27  1  0  0  0  0
  1 28  1  0  0  0  0
  2 29  1  0  0  0  0
  2 30  1  0  0  0  0
  3 31  1  0  0  0  0
  3 32  1  0  0  0  0
  6 33  1  0  0  0  0
  7 34  1  0  0  0  0
 11 35  1  0  0  0  0
 12 36  1  0  0  0  0
 13 37  1  0  0  0  0
 16 38  1  0  0  0  0
 17 39  1  0  0  0  0
 18 40  1  0  0  0  0
 20 41  1  0  0  0  0
 21 42  1  0  0  0  0
 22 43  1  0  0  0  0
M  END
