25

N          1.24283       -0.29761        0.04028
C          2.68516       -0.08535        0.01330
C          3.10764        1.32542        0.45257
C          2.67990        1.65231        1.89223
C          3.11450        3.05325        2.31541
C          2.63294        4.11299        1.32923
C          3.09274        3.80316       -0.09091
C          2.64940        2.40951       -0.53420
Cl        -1.19181        1.04600        0.54465
H          0.90553       -1.23805       -0.16393
H          0.67600        0.33512       -0.56445
H          0.75504       -0.02365        0.92212
H          3.01455       -0.29110       -1.01219
H          3.12520       -0.84026        0.67140
H          4.20713        1.32948        0.43863
H          3.10566        0.91606        2.58430
H          1.59305        1.59224        2.00117
H          4.21153        3.09036        2.38742
H          2.72161        3.27399        3.31382
H          3.00886        5.09636        1.63308
H          1.53774        4.16689        1.35631
H          4.18641        3.87238       -0.14491
H          2.69142        4.55319       -0.78052
H          3.05868        2.20342       -1.53021
H          1.55973        2.40816       -0.63453
