12

N          1.06920        0.02792        0.00192
C          2.52619        0.03102        0.12351
C          3.29874        0.80649       -0.90192
C          3.29126       -0.69641       -0.94185
H          0.64429        0.67690        0.67671
H          0.68962       -0.91060        0.18602
H          0.76082        0.31037       -0.93750
H          2.93154       -0.00972        1.13292
H          4.21803        1.29441       -0.58898
H          2.78576        1.33499       -1.69723
H          4.20427       -1.20931       -0.65482
H          2.76594       -1.17860       -1.75870
