18

N          1.26455        0.10631       -0.00205
C          2.70980        0.09691       -0.03512
C          3.19232        0.79551       -1.29896
C          4.71886        0.81258       -1.37423
C          5.20363        1.51331       -2.64400
I          7.33686        1.52258       -2.72629
Cl        -1.30251       -0.88151       -0.36356
H          0.81101       -0.39388        0.78451
H          0.75712       -0.41583       -0.76017
H          0.77655        1.01060       -0.02453
H          3.03551       -0.94805        0.00374
H          3.05248        0.61654        0.86591
H          2.81336        1.82578       -1.31998
H          2.78404        0.28682       -2.18138
H          5.09573       -0.21785       -1.34580
H          5.11945        1.32289       -0.48895
H          4.83421        2.54467       -2.66638
H          4.80519        1.00478       -3.52880
