21
0.206
N           -1.89751  -0.00000   0.74350
C           -1.08717   0.00000  -0.51704
C           -0.22021   1.27220  -0.63925
C            0.96647   1.26908   0.34066
C            1.82131   0.00000   0.18327
C            0.96648  -1.26908   0.34066
C           -0.22021  -1.27220  -0.63924
H           -2.49782   0.83023   0.79603
H           -1.29113  -0.00013   1.57044
H           -2.49801  -0.83010   0.79591
H           -1.80806  -0.00000  -1.35432
H           -0.84472   2.15764  -0.47434
H            0.15653   1.36238  -1.66403
H            0.59772   1.33769   1.36965
H            1.58379   2.16537   0.19567
H            2.64850  -0.00002   0.90502
H            2.29451   0.00001  -0.80538
H            0.59777  -1.33776   1.36967
H            1.58380  -2.16535   0.19556
H           -0.84471  -2.15764  -0.47435
H            0.15653  -1.36237  -1.66403
