21
 xtb: 6.5.1 (fef0646)
N           -1.89751262108544        0.01325752024220        0.74350194933540
C           -1.08717184790742        0.00581576932028       -0.51703406404451
C           -0.21894469455947        1.27790874588869       -0.63274591639887
C            0.96807994036336        1.25854628077729        0.34817132150756
C            1.82131296220301       -0.01089841961971        0.18326110101597
C            0.96487794442986       -1.27961380893995        0.33314085020490
C           -0.22148108666594       -1.26649213608208       -0.64573507983148
H           -2.60757831330608        0.75858025086478        0.72614956364718
H           -1.29110975515697        0.15716889927814        1.57045574361055
H           -2.38826699735916       -0.90178615614809        0.86579076157338
H           -1.80806527112882       -0.00114965143705       -1.35431282474152
H           -0.84288671208118        2.15949309631445       -0.46893226056087
H            0.15690528045306        1.36665603913921       -1.66181846132367
H            0.59894276744058        1.33209072231817        1.37272996541551
H            1.58489958971902        2.16243496228673        0.20116306914453
H            2.64850433678000       -0.00491690625513        0.90500942369058
H            2.29450717506564       -0.00165675063282       -0.80538906649367
H            0.59656035110493       -1.34336017859217        1.36658595917811
H            1.58269284249963       -2.16828483757028        0.19005388505275
H           -0.84654655662510       -2.15578691479848       -0.47974743647014
H            0.15614104054317       -1.35809562941670       -1.66624098019373
