25
 xtb: 6.5.1 (fef0646)
N           -4.68545684194945       -0.15392979609064        0.09177738842314
C           -3.25042370186029       -0.57234459135894        0.04086900228058
C           -2.29257632454478        0.62157318007626        0.07949856474512
C           -0.82483362280494        0.28808742241499        0.02229962817575
C            0.09402938214101        1.32140204325232       -0.10311761949435
C            1.44770714034610        1.07917887135083       -0.12881731935026
C            1.93925537399556       -0.22210488864357       -0.02777168396776
O            3.28719750471830       -0.57354559641350       -0.03637672963708
C            4.19406677544911        0.49801246577536       -0.14342298370765
C            1.01349006686820       -1.25910031703179        0.08870248725263
C           -0.33775147573110       -1.00917147589276        0.11352999704294
H           -5.31143165113360       -0.97076098886266        0.02580679169347
H           -4.88659091320523        0.48084161600276       -0.68945361541431
H           -4.90886425039169        0.34449774987785        0.97666304852425
H           -3.07320470399669       -1.21581935699889       -0.78652909128858
H           -3.04435827610270       -1.18439246177918        0.96625612508034
H           -2.48611354794077        1.26435266532975        0.90266569310145
H           -2.52637958543230        1.23068035067971       -0.83910323912314
H           -0.26620070724246        2.33604011896242       -0.14115831903922
H            2.13102323572902        1.90795123445545       -0.17840850545111
H            5.20230981606623        0.08096795874780       -0.11686198428109
H            4.06973060375411        1.15658931640482        0.73523554738743
H            4.03821798604000        1.03749774333507       -1.06367210969431
H            1.38823379180714       -2.26801091149369        0.11798152251996
H           -1.02327492377660       -1.83757597448505        0.15508412929820
