40
0.8
N           -7.58555  -1.12297  -2.35208
C           -7.98939  -1.72561  -1.04878
C           -7.64109  -0.83847   0.14760
C           -6.17854  -0.73761   0.42618
C           -5.61784  -0.60970   1.65799
C           -4.19998  -0.51119   1.64458
C           -3.65050  -0.56041   0.39444
C           -2.24736  -0.47745   0.08608
C           -1.70561  -0.52195  -1.17033
C           -0.29901  -0.41307  -1.19309
C            0.26921  -0.28139   0.04618
C            1.67403  -0.14031   0.30961
C            2.24301  -0.00558   1.54826
C            3.64751   0.12883   1.52240
C            4.18667   0.09953   0.26435
C            5.58621   0.22085  -0.04975
C            6.12439   0.19306  -1.30574
C            7.53662   0.33619  -1.32635
C            8.08022   0.47281  -0.09518
S            6.86124   0.42883   1.12818
S            2.91739  -0.10683  -0.91544
S           -0.97631  -0.30165   1.26929
S           -4.92663  -0.74071  -0.78012
Cl           0.64326   3.18083  -0.12267
H           -6.57927  -0.91233  -2.32937
H           -8.08156  -0.23871  -2.51949
H           -7.76635  -1.75059  -3.14664
H           -7.50288  -2.70024  -0.92805
H           -9.06628  -1.93298  -1.06929
H           -8.14388  -1.20904   1.04874
H           -8.03756   0.16873  -0.01826
H           -6.20192  -0.57881   2.56474
H           -3.60370  -0.40247   2.53680
H           -2.30804  -0.62709  -2.05864
H            0.28349  -0.42534  -2.10049
H            1.66152   0.00214   2.45639
H            4.24957   0.24786   2.40909
H            5.52446   0.07396  -2.19402
H            8.11649   0.33577  -2.23723
H            9.12623   0.59358   0.11325
