40
 xtb: 6.5.1 (fef0646)
N           -6.88562142037992       -0.01278888346791        1.86193193059342
C           -7.29237043536071       -1.31033373005252        1.25250971158658
C           -6.68925358505323       -1.48235623363876       -0.13923878551358
C           -5.20515107686919       -1.37561926310264       -0.13433828298324
C           -4.34609530062640       -2.40931635723523        0.06440756798519
C           -2.97914799898506       -2.02814470925787        0.03979662520490
C           -2.78592250546059       -0.69316901232218       -0.17790754419499
C           -1.50686363085616       -0.03310853144396       -0.25071690016270
C           -1.31134076296115        1.29628374816261       -0.51191906193099
C            0.04853343127683        1.68385600116711       -0.52828070554256
C            0.92155993903260        0.65619747393020       -0.27748074319296
C            2.35804046398033        0.75291499515991       -0.22663251655112
C            3.10246611109994        1.88361909953667       -0.44819421554312
C            4.49679396914571        1.68390264617778       -0.32484611408025
C            4.84801389217620        0.39937984836516       -0.00781108802957
C            6.19511643228302       -0.07997433097135        0.17869448813892
C            6.54818722350037       -1.37273767871966        0.45092263542699
C            7.94989525799128       -1.56546318796902        0.58571108684789
C            8.66510001716059       -0.42779518928399        0.41957507466937
S            7.62626751897757        0.91610318555168        0.10605556057114
S            3.41723123487462       -0.57917654753330        0.14575937233062
S            0.02989740748201       -0.81949104441070       -0.02517206746341
S           -4.32400265192431        0.10688761827257       -0.33676657389112
Cl          -7.04393131575229        2.04053038356257       -0.79010988351145
H           -7.05480913689018        0.74235064846435        1.22628005120511
H           -5.87347039190211       -0.04421353512099        2.08277179809151
H           -7.38678399334181        0.14650271238581        2.76508511216562
H           -8.39081061357544       -1.37770945850052        1.19114769057341
H           -6.98722117573476       -2.16326140008896        1.88082599045106
H           -7.08835252812627       -0.69802481413537       -0.80828731417024
H           -6.98331400922644       -2.43064630677418       -0.59969406853522
H           -4.68088450468353       -3.41113680991897        0.27321056683343
H           -2.16584385208737       -2.70874567286554        0.22599185544768
H           -2.12727811603865        1.98179345693067       -0.69139615795272
H            0.37057323108031        2.69845616064596       -0.71784444396408
H            2.66379793012885        2.84737631415446       -0.65902555975265
H            5.22535751486164        2.47387527980999       -0.43399753463820
H            5.81995559627884       -2.16159823429459        0.57724139680204
H            8.39351332681903       -2.52463202994696        0.81776958877965
H            9.73539285537505       -0.35570596306472        0.46691634268662
