50
 xtb: 6.5.1 (fef0646)
N           -7.57305220787833       -0.04757765841494       -1.97130982567651
C           -8.02241113601221        1.20160985081341       -1.29731759449186
C           -7.46082226394901        1.29804076442225        0.11868962913665
C           -5.97563183353422        1.22153850159273        0.14918979719999
C           -5.13452947712814        2.28508077735952        0.05859967508115
C           -3.76094216048191        1.93067221135908        0.09090627301164
C           -3.54488577022373        0.58608235994901        0.20534338005303
C           -2.25515406350407       -0.05148052500441        0.26190838795686
C           -2.02795481239246       -1.39003766806869        0.43119600015708
C           -0.65650679962352       -1.76917953169599        0.44769755061162
C           -0.26510090768728       -3.19136671081469        0.65781144036568
C            0.20386037432406       -0.69901453511760        0.25874526580358
C            1.65176382592605       -0.65687707190775        0.15639448806454
C            2.44817447634735       -1.78559494564676        0.04815842530225
C            3.84180356284224       -1.72538363410374       -0.04864515674678
C            4.54976751930937       -0.53734875473090       -0.04116556527332
C            6.00437163379770       -0.55099272757919       -0.14965495028913
C            6.91630445353405        0.31494700128551        0.41739216500630
C            6.57742505831165        1.44921976759159        1.32068485475223
C            8.26477067568316        0.00484084217640        0.06482318984486
C            8.39006019092452       -1.08296015268004       -0.72936164891825
S            6.85072759688707       -1.76538279064970       -1.07598671904151
C            3.78482626015892        0.67996849874917        0.01701492614777
N            4.23666930893793        1.91513981405120       -0.06536590336422
S            2.96049717762878        2.94178156308354        0.00835480351193
N            1.77278328751265        1.81427915178863        0.12766969869427
C            2.32665701149988        0.61799257069088        0.11664214065910
S           -0.73298856449243        0.76252599113444        0.13127844826288
S           -5.06946603487749       -0.25793756018856        0.25648799769578
Cl          -7.74386102418198       -2.25031966050056        0.49861305551837
H           -7.73365901311752       -0.84132098065723       -1.38987406342842
H           -6.55532900862863        0.02339708405619       -2.17294270129057
H           -8.04878551276698       -0.16222427905497       -2.89857904241582
H           -9.12315068376956        1.24262034481727       -1.26547561322671
H           -7.72008900864884        2.09902204380885       -1.86658348738234
H           -7.85951169865965        0.46736442452643        0.72316116209418
H           -7.78766332280044        2.21150478733445        0.62485592825031
H           -5.48477644168804        3.29507235915767       -0.09064147078244
H           -2.95723084802513        2.64143303988557       -0.02620969255487
H           -2.83310909863705       -2.10419721560565        0.51794442902552
H            0.10352382342768       -3.63281292318676       -0.30377005900404
H           -1.12689439306108       -3.79358643534092        0.93969587847968
H            0.49249145468289       -3.29729442852440        1.39953182457593
H            1.98853177211605       -2.75538019794679        0.01795573038898
H            4.40356047451304       -2.64212288031214       -0.12214161770691
H            7.39422296612623        1.66545903777002        2.00866377716937
H            5.68614186508096        1.23829057325440        1.89973835986522
H            6.38742015967872        2.36055228997696        0.73408906818843
H            9.10458491397747        0.59558074944326        0.40431390168158
H            9.31565776517415       -1.48289689820994       -1.09959522837225
