 xtb: 6.5.1 (fef0646)
          01242314553D

 18 16  0     0  0            999 V2000
    1.1303   -0.1806    0.4381 N   0  0  0  0  0  0  0  0  0  0  0  0
    2.5884   -0.2401    0.2068 C   0  0  0  0  0  0  0  0  0  0  0  0
    2.9544   -1.2587   -0.8745 C   0  0  0  0  0  0  0  0  0  0  0  0
    2.5733   -0.7461   -2.2602 C   0  0  0  0  0  0  0  0  0  0  0  0
    4.4524   -1.5541   -0.8091 C   0  0  0  0  0  0  0  0  0  0  0  0
   -0.7823    0.8235   -1.7406 Cl  0  0  0  0  0  0  0  0  0  0  0  0
    0.9056    0.4599    1.2028 H   0  0  0  0  0  0  0  0  0  0  0  0
    0.7610   -1.1099    0.6551 H   0  0  0  0  0  0  0  0  0  0  0  0
    0.6015    0.1639   -0.3994 H   0  0  0  0  0  0  0  0  0  0  0  0
    3.0769   -0.5171    1.1422 H   0  0  0  0  0  0  0  0  0  0  0  0
    2.9356    0.7473   -0.0964 H   0  0  0  0  0  0  0  0  0  0  0  0
    2.4098   -2.1885   -0.6842 H   0  0  0  0  0  0  0  0  0  0  0  0
    3.1646    0.1299   -2.5175 H   0  0  0  0  0  0  0  0  0  0  0  0
    1.5231   -0.4699   -2.3134 H   0  0  0  0  0  0  0  0  0  0  0  0
    2.7567   -1.5089   -3.0129 H   0  0  0  0  0  0  0  0  0  0  0  0
    5.0248   -0.6426   -0.9621 H   0  0  0  0  0  0  0  0  0  0  0  0
    4.7306   -2.2621   -1.5847 H   0  0  0  0  0  0  0  0  0  0  0  0
    4.7246   -1.9781    0.1537 H   0  0  0  0  0  0  0  0  0  0  0  0
  1  2  1  0  0  0  0
  2  3  1  0  0  0  0
  3  4  1  0  0  0  0
  3  5  1  0  0  0  0
  1  7  1  0  0  0  0
  1  8  1  0  0  0  0
  1  9  1  0  0  0  0
  2 10  1  0  0  0  0
  2 11  1  0  0  0  0
  3 12  1  0  0  0  0
  4 13  1  0  0  0  0
  4 14  1  0  0  0  0
  4 15  1  0  0  0  0
  5 16  1  0  0  0  0
  5 17  1  0  0  0  0
  5 18  1  0  0  0  0
M  END
