29
 xtb: 6.5.1 (fef0646)
N           -3.22356758110764       -1.39307296593049        0.22002892605225
C           -2.42659106747805       -0.37828748406089        0.97769479691342
C           -2.22282155851047        0.92534934899136        0.20938426117153
C           -1.48512267291391        0.78193355896229       -1.12374941514276
C           -0.05758751602666        0.24203127144937       -0.99939827870198
C            0.87591761256134        1.15775600656395       -0.20474708843838
C            2.33791727735728        0.70035624922697       -0.20929407599344
C            2.56911170880458       -0.63357691599706        0.50434437531438
C            4.03560301457628       -1.03995092674005        0.53546008807149
H           -4.10009614053028       -0.95114366263216       -0.11757565683013
H           -3.48535113240742       -2.18289879126197        0.84482499849580
H           -2.71488754042562       -1.77477729125629       -0.58264069423947
H           -1.42976295654493       -0.82100720187366        1.21327137306244
H           -2.88025259681084       -0.18322760137429        1.93742475338743
H           -1.69805743406470        1.65112013128427        0.83654807669361
H           -3.21233825838692        1.36588217537890        0.03289198513395
H           -1.45768908233538        1.75818345910641       -1.63280627079810
H           -2.07111113101074        0.13980383745247       -1.79398900792533
H            0.36407887379607        0.09961592648648       -2.01222113058595
H           -0.07575915681763       -0.75002019474057       -0.56161772914380
H            0.52269605400857        1.23828382345694        0.82126177876093
H            0.81049943800583        2.17597681335092       -0.61808246249141
H            2.96926057380509        1.46329939135958        0.25054032832375
H            2.69425384407549        0.61235126507697       -1.24310880608087
H            1.96859729740198       -1.41929632777170        0.03544207505389
H            2.16901596834627       -0.55762637402114        1.53561319467893
H            4.63531517317306       -0.29486089241477        1.05817184900956
H            4.42894429810944       -1.15755370513022       -0.45710602506534
H            4.17213547615781       -1.99237910694703        1.07051127042406
