17
 xtb: 6.5.1 (fef0646)
N           -2.22724919276173       -2.31431442950860        0.76073739356832
C           -3.00086892969816       -1.03673958164926        0.78579213712515
C           -2.40187530877008        0.07741173699432       -0.09132134964312
C           -1.54609188823884        1.09733909785769        0.67875220310022
C           -0.23062971374632        0.55026936256791        1.20413817030869
I            1.13885656488150        0.28317331725330       -0.41526509566575
H           -2.15636828396897       -2.65875508397688       -0.27601822519237
H           -2.53119880684543       -3.04060341014274        1.29522259151620
H           -1.16499011249074       -2.15778601056236        0.96101574487319
H           -2.98898713460943       -0.72024413391354        1.84665002948958
H           -3.98490305718708       -1.27498605352120        0.52823129243341
H           -3.25322026829293        0.61684633367295       -0.56249404269552
H           -1.83139089600247       -0.32268826425058       -0.90747295263238
H           -2.15026158454270        1.54865297880385        1.50235045709109
H           -1.35644175065014        1.99592280317606        0.01426369845766
H           -0.35046225041314       -0.28661719173941        1.79934651536409
H            0.28696504310701        1.35491704838806        1.81214633414651
