12
 xtb: 6.5.1 (fef0646)
N           -1.50178349811923       -0.00021896399999       -0.15771813056935
C           -0.16025918596687        0.02900456376467        0.49486534857734
C            0.99424512831781        0.74367634783393       -0.16674511714511
C            0.97614877147727       -0.76848123048899       -0.10472833760442
H           -1.40880896848077        0.14454238752141       -1.17589106910955
H           -2.08535855679181        0.75798890434815        0.22954855014816
H           -1.96665300769886       -0.90757642862036        0.00628509561654
H           -0.21984829818524        0.01892408735063        1.59103841277988
H            1.69338773619246        1.28225912807172        0.49722715616524
H            0.80639583798368        1.26284237862324       -1.09091301121066
H            1.68144073028635       -1.27875636022315        0.53155852269339
H            0.79843654216840       -1.29326444801809       -1.05897878470831
