 xtb: 6.5.1 (fef0646)
          02032317503D

 12 12  0     0  0            999 V2000
   -1.5018   -0.0001   -0.1577 N   0  0  0  0  0  0  0  0  0  0  0  0
   -0.1603   -0.0002    0.4948 C   0  0  0  0  0  0  0  0  0  0  0  0
    0.9850    0.7562   -0.1356 C   0  0  0  0  0  0  0  0  0  0  0  0
    0.9854   -0.7560   -0.1358 C   0  0  0  0  0  0  0  0  0  0  0  0
   -1.4089   -0.0007   -1.1758 H   0  0  0  0  0  0  0  0  0  0  0  0
   -2.0257    0.8330    0.1174 H   0  0  0  0  0  0  0  0  0  0  0  0
   -2.0262   -0.8324    0.1184 H   0  0  0  0  0  0  0  0  0  0  0  0
   -0.2198    0.0002    1.5910 H   0  0  0  0  0  0  0  0  0  0  0  0
    1.6876    1.2803    0.5143 H   0  0  0  0  0  0  0  0  0  0  0  0
    0.8016    1.2786   -1.0745 H   0  0  0  0  0  0  0  0  0  0  0  0
    1.6873   -1.2807    0.5145 H   0  0  0  0  0  0  0  0  0  0  0  0
    0.8032   -1.2775   -1.0754 H   0  0  0  0  0  0  0  0  0  0  0  0
  1  2  1  0  0  0  0
  2  3  1  0  0  0  0
  2  4  1  0  0  0  0
  3  4  1  0  0  0  0
  1  5  1  0  0  0  0
  1  6  1  0  0  0  0
  1  7  1  0  0  0  0
  2  8  1  0  0  0  0
  3  9  1  0  0  0  0
  3 10  1  0  0  0  0
  4 11  1  0  0  0  0
  4 12  1  0  0  0  0
M  CHG  1   1   1
M  END
