45
0.606
N           -6.65466  -3.19876  -0.30658
C           -7.49900  -2.24464   0.47035
C           -7.56700  -0.85249  -0.16249
C           -6.29124  -0.08821  -0.07783
C           -6.17686   1.26877   0.03289
C           -4.84769   1.73741   0.08005
C           -3.89810   0.74101   0.00365
C           -2.48607   0.90133   0.02520
C           -1.78851   2.09505   0.12657
C           -0.39569   1.96472   0.12539
C            0.51413   3.13720   0.22730
C            0.03030   0.63655   0.02118
C            1.35686   0.13977  -0.00821
C            1.69445  -1.20377  -0.11274
C            3.06292  -1.45354  -0.12080
C            3.85456  -0.31796  -0.02340
C            5.27873  -0.32456  -0.01060
C            6.14283   0.75716   0.07933
C            5.71680   2.17910   0.18258
C            7.50578   0.37200   0.06432
C            7.70659  -0.96763  -0.03450
S            6.21013  -1.79908  -0.11293
S            2.82262   1.07824   0.07838
S           -1.35732  -0.41115  -0.07443
S           -4.71216  -0.79224  -0.12690
H           -5.70607  -2.82277  -0.40694
H           -7.03392  -3.33821  -1.25049
H           -6.58818  -4.11582   0.15250
H           -7.10742  -2.15883   1.49025
H           -8.50653  -2.66566   0.57196
H           -8.35996  -0.26310   0.31179
H           -7.85323  -0.94373  -1.21474
H           -7.03346   1.92334   0.07646
H           -4.59669   2.78258   0.16677
H           -2.27852   3.05168   0.20120
H            1.16139   3.20033  -0.64697
H            1.14417   3.06084   1.11355
H           -0.04773   4.06873   0.29549
H            0.95056  -1.98159  -0.18075
H            3.48261  -2.44369  -0.19583
H            5.12052   2.46713  -0.68310
H            6.57711   2.84644   0.23315
H            5.11693   2.33806   1.07831
H            8.31131   1.08735   0.12655
H            8.66205  -1.45549  -0.06096
