45
 xtb: 6.5.1 (fef0646)
N           -6.65635360159749       -3.19429895757418       -0.35715295468241
C           -7.50098382055357       -2.25069861881796        0.43548938723406
C           -7.56678013934065       -0.84960536891023       -0.17811021072623
C           -6.29117566545682       -0.08689596396167       -0.07744039549298
C           -6.17661513687344        1.26843201475747        0.05305162705310
C           -4.84735486699410        1.73612284672396        0.10735279871648
C           -3.89796407014959        0.74060829778466        0.01707878103385
C           -2.48593054327176        0.90056888345106        0.03988510242881
C           -1.78828351576661        2.09361440011842        0.14861943344710
C           -0.39547556176538        1.96319316732745        0.14660750048761
C            0.51442728756031        3.13486501577961        0.25714288222828
C            0.03038943273468        0.63557069356671        0.03485226967391
C            1.35687165591164        0.13858048084022        0.00623863338487
C            1.69424041963782       -1.20638874747441       -0.08064715283444
C            3.06273291714312       -1.45591976220267       -0.09229793452303
C            3.85461878677728       -0.31861375907931       -0.01697889216263
C            5.27888752846662       -0.32417389488815       -0.01674911744567
C            6.14335233694506        0.76095717033798        0.02890036598506
C            5.71787154501602        2.18613413292556        0.09028170106556
C            7.50633758421610        0.37575668467241        0.01533139071599
C            7.70674687488595       -0.96748689253988       -0.03540783937401
S            6.20968467344693       -1.80472029318397       -0.03764533362660
S            2.82299480286584        1.07958499643628        0.05948060919819
S           -1.35727448728851       -0.41151516414521       -0.06357183108243
S           -4.71224725302114       -0.78974822227832       -0.14009025203754
H           -5.70659424504260       -2.82102341911640       -0.41910813219198
H           -7.03440696035210       -3.33357751692190       -1.26453312158521
H           -6.58850552488468       -4.11628232892755        0.13556938770767
H           -7.10831691840706       -2.16459910280437        1.48064013121800
H           -8.50723785549112       -2.66751153765555        0.55993363255858
H           -8.36043913044191       -0.26416516767822        0.30877143098620
H           -7.85190262258834       -0.93852692434063       -1.21996480589532
H           -7.03336012704116        1.92312174971960        0.08491875857332
H           -4.59653128038123        2.78184914805209        0.17904957249731
H           -2.27841709956192        3.05114663384540        0.20936928756908
H            1.15955474986796        3.20308375615118       -0.63952293254261
H            1.14622721442765        3.05690168263263        1.12050785805557
H           -0.04763887895959        4.06770195136462        0.30885356763135
H            0.95042286631241       -1.98269158810707       -0.16689404605199
H            3.48250287535550       -2.44468105284279       -0.18402995647638
H            5.12003499541891        2.46188846448396       -0.71168724843644
H            6.57751176830220        2.84881882066241        0.20020673841954
H            5.11811562672911        2.34769983475852        1.05079907567493
H            8.31154992631071        1.08912550166647        0.10310285469430
H            8.66205291040262       -1.45580219074859       -0.05666107225646
