45
 xtb: 6.5.1 (fef0646)
N           -6.66174760461925       -3.19985206235091       -0.30222368400262
C           -7.48378509493963       -2.24030559263167        0.49196669644964
C           -7.56897626293028       -0.85332901564398       -0.14982207405008
C           -6.29246898803140       -0.08641750451639       -0.08773712510526
C           -6.17708234512498        1.27349770847079       -0.01515427698021
C           -4.84747127369675        1.74128751466520        0.03143796057008
C           -3.89854375343253        0.74146127235495       -0.00752671802079
C           -2.48640628095747        0.90058383105038        0.02163058555950
C           -1.78877477388512        2.09443389301744        0.12136275067652
C           -0.39595438581213        1.96402576909284        0.12172508722619
C            0.51380572257785        3.13665302848295        0.22245460561846
C            0.03009944749984        0.63573860277349        0.01919084914086
C            1.35684099888114        0.13946359737966       -0.01326290929393
C            1.69491092024375       -1.20291916721476       -0.13119085471091
C            3.06346471490452       -1.45232909875220       -0.13969145739475
C            3.85474457967849       -0.31769651817642       -0.02805465478540
C            5.27888986913319       -0.32439412559384       -0.00980120971725
C            6.14258532831196        0.75562584993018        0.10454077375552
C            5.71603178382911        2.17553363816984        0.23304602918939
C            7.50561231948292        0.37093616831955        0.08676176941820
C            7.70699315717885       -0.96652956409113       -0.04003808881860
S            6.21144367360952       -1.79485448185328       -0.16088620037634
S            2.82213469986585        1.07642110641550        0.09375376720497
S           -1.35775524884970       -0.41286704216895       -0.07343249168473
S           -4.71508041737791       -0.79746045423815       -0.06687778996752
H           -5.71688405706694       -2.80917314938733       -0.43940408598448
H           -7.05981819492637       -3.36335683503290       -1.23593697491902
H           -6.56230858521540       -4.10607356035960        0.16957074878246
H           -7.09412617435790       -2.15449231470672        1.49277057549228
H           -8.50102769081349       -2.66473905035258        0.58826306734066
H           -8.35895803642131       -0.26304507478138        0.31779280845488
H           -7.85829070967423       -0.94589515957200       -1.20962003766204
H           -7.03332062553273        1.92553868420011        0.05441859363769
H           -4.59642456510630        2.78436157198778        0.14444783237688
H           -2.27856754467645        3.05153602948302        0.19946173245026
H            1.16213856317948        3.19926813227775       -0.64781848616111
H            1.14324781704220        3.06149365573477        1.11281892592278
H           -0.04780512755802        4.06867425668808        0.29269497048822
H            0.95077053321912       -1.98117680652083       -0.18895393285831
H            3.48283986479433       -2.44309847819553       -0.20418923931137
H            5.12032585038575        2.47036890465374       -0.66708454480531
H            6.57682599106222        2.84522501214624        0.25106615979777
H            5.11664341754747        2.33242274735644        1.09367680936240
H            8.31118436829210        1.08667316031359        0.13797422979455
H            8.66221012063575       -1.45494536763589       -0.06561068543106
