34
1.997
N            4.67112   0.75559  -0.84572
C            3.42876   0.23764  -0.20437
C            2.21509   0.33316  -1.12187
C            0.96384  -0.19881  -0.48784
C            0.13479   0.63355   0.25133
C           -0.99700   0.13953   0.85977
C            0.63862  -1.54454  -0.58682
C           -0.49261  -2.04293   0.01947
C           -1.33223  -1.20615   0.74842
N           -2.49270  -1.70513   1.34184
N           -3.63023  -1.24089   1.13454
C           -3.90689  -0.25936   0.18158
C           -3.52229  -0.42680  -1.14583
C           -3.77712   0.55322  -2.07898
C           -4.42440   1.71461  -1.70386
C           -4.81758   1.89190  -0.39143
C           -4.56310   0.91381   0.54442
Cl           7.38290   0.43339   1.39066
H            4.88895   0.23007  -1.70235
H            5.48491   0.68065  -0.21492
H            4.56524   1.74757  -1.10705
H            3.23289   0.78741   0.72360
H            3.57673  -0.80434   0.10205
H            2.41058  -0.20912  -2.05295
H            2.05813   1.37399  -1.42302
H            0.38685   1.67621   0.34572
H           -1.64257   0.78905   1.42464
H            1.28481  -2.20041  -1.14540
H           -0.74592  -3.08514  -0.06654
H           -3.01471  -1.33271  -1.42789
H           -3.46958   0.41445  -3.10269
H           -4.62324   2.48140  -2.43476
H           -5.32383   2.79741  -0.09895
H           -4.86281   1.04453   1.56962
