34
 xtb: 6.5.1 (fef0646)
N            4.65271937937248        0.76156681038165       -0.87699169704521
C            3.42008355756314        0.24243686450981       -0.21777436750709
C            2.20810340674539        0.30253337370938       -1.14000883908209
C            0.96004070171394       -0.22172742914164       -0.49448375789216
C            0.14553920793820        0.61541084857586        0.25564672212205
C           -0.98634562965846        0.12972561622828        0.87035981043394
C            0.62308471235664       -1.56421403594914       -0.59561887652081
C           -0.50860794869844       -2.05413503348073        0.01630295612267
C           -1.33618168632050       -1.21193620259613        0.75323773223962
N           -2.50006784584941       -1.70326800923875        1.34631632940253
N           -3.63677812792927       -1.23450461321349        1.13703710543321
C           -3.90745404228590       -0.25350460326999        0.18293483167951
C           -3.48917434318438       -0.40217667195811       -1.13755539658226
C           -3.73854281938100        0.58160373248427       -2.06804432203402
C           -4.41448703408824        1.72869081731483       -1.69769452841096
C           -4.84301289695286        1.88677133282844       -0.39323603444841
C           -4.59429147059333        0.90451811126726        0.53979521534932
Cl           7.41222657455742        0.45850461693052        1.41892359046634
H            4.88618285566695        0.22550721049537       -1.70646883368136
H            5.47919174835409        0.69117137388891       -0.22339372088406
H            4.55551503624004        1.74658874973408       -1.12362766271996
H            3.22831398246366        0.79438303275335        0.71590198170460
H            3.57793366661518       -0.80039797003875        0.10511854864031
H            2.41046887565029       -0.22480746470204       -2.05374197699421
H            2.05387357963578        1.36248803555632       -1.43656221423154
H            0.39317652177052        1.67013613704202        0.34762643061398
H           -1.63677927257972        0.78720780803289        1.42967393760397
H            1.27734664231114       -2.20716825309986       -1.15011013267248
H           -0.75382840460340       -3.08752934576689       -0.06821196576093
H           -2.99896456476788       -1.32233458332834       -1.42475091862395
H           -3.45062921116578        0.42687493013645       -3.09775544026582
H           -4.61907963512460        2.48647831737481       -2.43229251479678
H           -5.33820395177445        2.79243801826505       -0.10073115004065
H           -4.88007431356572        1.03741650504296        1.56644683896645
