 xtb: 6.5.1 (fef0646)
          01242316583D

 34 34  0     0  0            999 V2000
    4.6711    0.7556   -0.8457 N   0  0  0  0  0  0  0  0  0  0  0  0
    3.4288    0.2376   -0.2044 C   0  0  0  0  0  0  0  0  0  0  0  0
    2.2151    0.3331   -1.1219 C   0  0  0  0  0  0  0  0  0  0  0  0
    0.9638   -0.1988   -0.4878 C   0  0  0  0  0  0  0  0  0  0  0  0
    0.1348    0.6335    0.2513 C   0  0  0  0  0  0  0  0  0  0  0  0
   -0.9970    0.1395    0.8598 C   0  0  0  0  0  0  0  0  0  0  0  0
    0.6386   -1.5445   -0.5868 C   0  0  0  0  0  0  0  0  0  0  0  0
   -0.4926   -2.0429    0.0195 C   0  0  0  0  0  0  0  0  0  0  0  0
   -1.3322   -1.2061    0.7484 C   0  0  0  0  0  0  0  0  0  0  0  0
   -2.4927   -1.7051    1.3419 N   0  0  0  0  0  0  0  0  0  0  0  0
   -3.6302   -1.2409    1.1346 N   0  0  0  0  0  0  0  0  0  0  0  0
   -3.9069   -0.2593    0.1816 C   0  0  0  0  0  0  0  0  0  0  0  0
   -3.5223   -0.4268   -1.1458 C   0  0  0  0  0  0  0  0  0  0  0  0
   -3.7771    0.5532   -2.0790 C   0  0  0  0  0  0  0  0  0  0  0  0
   -4.4244    1.7146   -1.7038 C   0  0  0  0  0  0  0  0  0  0  0  0
   -4.8176    1.8919   -0.3914 C   0  0  0  0  0  0  0  0  0  0  0  0
   -4.5631    0.9138    0.5444 C   0  0  0  0  0  0  0  0  0  0  0  0
    7.3829    0.4334    1.3906 Cl  0  0  0  0  0  0  0  0  0  0  0  0
    4.8889    0.2300   -1.7024 H   0  0  0  0  0  0  0  0  0  0  0  0
    5.4849    0.6806   -0.2149 H   0  0  0  0  0  0  0  0  0  0  0  0
    4.5652    1.7475   -1.1071 H   0  0  0  0  0  0  0  0  0  0  0  0
    3.2329    0.7874    0.7236 H   0  0  0  0  0  0  0  0  0  0  0  0
    3.5767   -0.8044    0.1020 H   0  0  0  0  0  0  0  0  0  0  0  0
    2.4106   -0.2091   -2.0530 H   0  0  0  0  0  0  0  0  0  0  0  0
    2.0581    1.3740   -1.4230 H   0  0  0  0  0  0  0  0  0  0  0  0
    0.3869    1.6762    0.3457 H   0  0  0  0  0  0  0  0  0  0  0  0
   -1.6426    0.7891    1.4246 H   0  0  0  0  0  0  0  0  0  0  0  0
    1.2848   -2.2004   -1.1454 H   0  0  0  0  0  0  0  0  0  0  0  0
   -0.7459   -3.0851   -0.0665 H   0  0  0  0  0  0  0  0  0  0  0  0
   -3.0147   -1.3327   -1.4279 H   0  0  0  0  0  0  0  0  0  0  0  0
   -3.4696    0.4145   -3.1027 H   0  0  0  0  0  0  0  0  0  0  0  0
   -4.6232    2.4814   -2.4347 H   0  0  0  0  0  0  0  0  0  0  0  0
   -5.3238    2.7974   -0.0989 H   0  0  0  0  0  0  0  0  0  0  0  0
   -4.8628    1.0446    1.5696 H   0  0  0  0  0  0  0  0  0  0  0  0
  1  2  1  0  0  0  0
  2  3  1  0  0  0  0
  3  4  1  0  0  0  0
  4  5  4  0  0  0  0
  5  6  4  0  0  0  0
  4  7  4  0  0  0  0
  7  8  4  0  0  0  0
  6  9  4  0  0  0  0
  8  9  4  0  0  0  0
  9 10  1  0  0  0  0
 10 11  2  0  0  0  0
 11 12  1  0  0  0  0
 12 13  4  0  0  0  0
 13 14  4  0  0  0  0
 14 15  4  0  0  0  0
 15 16  4  0  0  0  0
 12 17  4  0  0  0  0
 16 17  4  0  0  0  0
  1 19  1  0  0  0  0
  1 20  1  0  0  0  0
  1 21  1  0  0  0  0
  2 22  1  0  0  0  0
  2 23  1  0  0  0  0
  3 24  1  0  0  0  0
  3 25  1  0  0  0  0
  5 26  1  0  0  0  0
  6 27  1  0  0  0  0
  7 28  1  0  0  0  0
  8 29  1  0  0  0  0
 13 30  1  0  0  0  0
 14 31  1  0  0  0  0
 15 32  1  0  0  0  0
 16 33  1  0  0  0  0
 17 34  1  0  0  0  0
M  END
