34
 xtb: 6.5.1 (fef0646)
N            4.45337020661395        0.72703868718081        0.07693007965331
C            3.04074093278997        0.26296521640180       -0.03851613599162
C            2.77743892573442       -1.03363341720599        0.72145761464376
C            1.35832928594778       -1.50319042670752        0.58944196826654
C            0.40512746874299       -1.15797098686344        1.53753900295036
C           -0.90669092388059       -1.55035129587523        1.39254668884707
C            0.95979627133034       -2.24471584511000       -0.51465976607120
C           -0.35157964331810       -2.63665051568725       -0.66558012679098
C           -1.30715218922044       -2.29114277099429        0.28535576540931
N           -2.64525203664817       -2.65074675735128        0.11447861512909
N           -3.58067485177836       -1.82997983517818        0.10285762256591
C           -3.39579185921197       -0.44536989678030        0.12563140203673
C           -2.61774714692187        0.18013496329943       -0.84460557447432
C           -2.41021682174784        1.54106719288270       -0.80655799196935
C           -2.97950267329633        2.30033158331441        0.19768480119820
C           -3.75835836523285        1.69350355452464        1.16439160204607
C           -3.96638210342221        0.33225006075776        1.13008739874094
Cl           4.85876724956850        3.66219002719769       -1.68677127094678
H            4.61273426223902        1.59684699519871       -0.42277506863112
H            5.09984820099017        0.00953180892715       -0.29348259311342
H            4.70904925556092        0.86857325214468        1.07480229330549
H            2.77436253154628        0.14305129283107       -1.08922560964976
H            2.36595121853475        1.03227728470611        0.35319745331521
H            3.03869094277814       -0.94365340614336        1.76189805156213
H            3.45127447727299       -1.83134163006338        0.32305759582738
H            0.71240859062524       -0.56134254726883        2.37190471230584
H           -1.63726069944195       -1.25792259795747        2.12269649788278
H            1.68068251074109       -2.53997168934162       -1.26222158047256
H           -0.67128054628763       -3.23084492475491       -1.51188555206766
H           -2.14422290947624       -0.43043783767645       -1.59559467100435
H           -1.76600253373194        2.00260746695245       -1.54479229914200
H           -2.80610577848219        3.36760429794061        0.21721944486581
H           -4.22415082965026        2.30228387201901        1.92047476726350
H           -4.59396153853729       -0.13264140920266        1.86320141427961
