21
0.806
N           -1.28160  -1.72166   0.61328
C           -0.33340  -2.09268  -0.47793
C            0.72248  -1.01852  -0.72533
C            1.65147  -0.79735   0.46804
C            2.75240   0.23429   0.20182
C            2.21757   1.64356  -0.00970
Cl          -2.22234   1.58339  -0.07812
H           -1.67430  -0.78060   0.43979
H           -0.80769  -1.68916   1.52625
H           -2.06563  -2.38495   0.69117
H           -0.89926  -2.27956  -1.39953
H            0.15300  -3.04503  -0.23603
H            0.22274  -0.07769  -0.98191
H            1.32309  -1.27503  -1.60719
H            2.09716  -1.75814   0.75583
H            1.06460  -0.48131   1.33804
H            3.33759  -0.07906  -0.67248
H            3.46693   0.23499   1.03654
H            3.02131   2.37007  -0.14947
H            1.62433   1.97279   0.84538
H            1.57420   1.70204  -0.88909
