21
 xtb: 6.5.1 (fef0646)
N           -1.33350723328475       -1.57278134559018        0.57617494930845
C           -0.36713433939541       -2.04617539012215       -0.46645415896768
C            0.73291976039401       -1.01968830625161       -0.73432666656289
C            1.65222124526270       -0.79115808203178        0.46483366235712
C            2.75390952889643        0.23993542462825        0.20077823591791
C            2.21943047619907        1.64979998581644       -0.00798188974917
Cl          -2.16921757985576        1.42474582918193       -0.04969701211141
H           -1.66524155815992       -0.72597423225065        0.42230768752714
H           -0.83257802560548       -1.65827567278600        1.52196672151873
H           -2.09589073898646       -2.32600988511755        0.67404463663389
H           -0.90344806386502       -2.27128446547135       -1.39867975500595
H            0.13142098874621       -3.03371448093188       -0.21755523427068
H            0.23516622670146       -0.07580225594884       -0.99423983649438
H            1.32712766676789       -1.28826811201109       -1.60531065064945
H            2.09653798497417       -1.75577179202969        0.75762317279989
H            1.06254539847073       -0.47834513810358        1.33509927143360
H            3.33796488101907       -0.07693985218786       -0.67297635783725
H            3.46736758791564        0.23613755720443        1.03624331998588
H            3.02185880227093        2.37187242690846       -0.14937917399495
H            1.62545709930268        1.97440622181048        0.84636742905569
H            1.57435279086270        1.70422051875077       -0.88833047895828
