 xtb: 6.5.1 (fef0646)
          01242317103D

 21 19  0     0  0            999 V2000
   -1.2816   -1.7217    0.6133 N   0  0  0  0  0  0  0  0  0  0  0  0
   -0.3334   -2.0927   -0.4779 C   0  0  0  0  0  0  0  0  0  0  0  0
    0.7225   -1.0185   -0.7253 C   0  0  0  0  0  0  0  0  0  0  0  0
    1.6515   -0.7974    0.4680 C   0  0  0  0  0  0  0  0  0  0  0  0
    2.7524    0.2343    0.2018 C   0  0  0  0  0  0  0  0  0  0  0  0
    2.2176    1.6435   -0.0097 C   0  0  0  0  0  0  0  0  0  0  0  0
   -2.2223    1.5834   -0.0781 Cl  0  0  0  0  0  0  0  0  0  0  0  0
   -1.6743   -0.7806    0.4398 H   0  0  0  0  0  0  0  0  0  0  0  0
   -0.8077   -1.6892    1.5263 H   0  0  0  0  0  0  0  0  0  0  0  0
   -2.0656   -2.3849    0.6912 H   0  0  0  0  0  0  0  0  0  0  0  0
   -0.8993   -2.2796   -1.3995 H   0  0  0  0  0  0  0  0  0  0  0  0
    0.1530   -3.0450   -0.2360 H   0  0  0  0  0  0  0  0  0  0  0  0
    0.2227   -0.0777   -0.9819 H   0  0  0  0  0  0  0  0  0  0  0  0
    1.3231   -1.2750   -1.6072 H   0  0  0  0  0  0  0  0  0  0  0  0
    2.0972   -1.7581    0.7558 H   0  0  0  0  0  0  0  0  0  0  0  0
    1.0646   -0.4813    1.3380 H   0  0  0  0  0  0  0  0  0  0  0  0
    3.3376   -0.0791   -0.6725 H   0  0  0  0  0  0  0  0  0  0  0  0
    3.4669    0.2350    1.0365 H   0  0  0  0  0  0  0  0  0  0  0  0
    3.0213    2.3701   -0.1495 H   0  0  0  0  0  0  0  0  0  0  0  0
    1.6243    1.9728    0.8454 H   0  0  0  0  0  0  0  0  0  0  0  0
    1.5742    1.7020   -0.8891 H   0  0  0  0  0  0  0  0  0  0  0  0
  1  2  1  0  0  0  0
  2  3  1  0  0  0  0
  3  4  1  0  0  0  0
  4  5  1  0  0  0  0
  5  6  1  0  0  0  0
  1  8  1  0  0  0  0
  1  9  1  0  0  0  0
  1 10  1  0  0  0  0
  2 11  1  0  0  0  0
  2 12  1  0  0  0  0
  3 13  1  0  0  0  0
  3 14  1  0  0  0  0
  4 15  1  0  0  0  0
  4 16  1  0  0  0  0
  5 17  1  0  0  0  0
  5 18  1  0  0  0  0
  6 19  1  0  0  0  0
  6 20  1  0  0  0  0
  6 21  1  0  0  0  0
M  END
