48
 xtb: 6.5.1 (fef0646)
N           -7.52092574438754        0.30693134130662        1.92949344734783
C           -8.09534830238507        1.22132483450189        0.90627436546001
C           -7.48923931161496        0.98121075174774       -0.47424101933110
C           -6.00492047929326        1.08227397376694       -0.46456757261308
C           -5.29314273768738        2.23696086326625       -0.54859110807081
C           -3.88874305982646        2.04523080412161       -0.49058844081867
C           -3.51978101691554        0.73603329673231       -0.35887740671640
C           -2.16508552213020        0.25508986225111       -0.27040704821432
C           -1.78672575885704       -1.05114395432943       -0.14495450780438
C           -0.38331787171726       -1.25333418991251       -0.06636606060053
C            0.19748313418355       -2.61605281571489        0.08338303289077
C            0.34162572993145       -0.07733633139442       -0.13401201938272
C            1.77891854014158        0.05368064903900       -0.07744016732202
C            2.50307050625164        1.22817757754153       -0.17072231691999
C            1.92637327649756        2.50097864929655       -0.33694102759313
N            1.41726621824185        3.53501986713118       -0.47744324675583
C            3.92698820023953        1.04297659137764       -0.07578221555621
C            4.83953160998456        2.11557729486137       -0.09185704306320
N            5.62369557866368        2.97193523472531       -0.11522360778386
C            4.29703845828267       -0.27837512876261        0.07570494937608
C            5.63739268271324       -0.82509260775962        0.19658459475972
C            6.76987039788073       -0.47900869281944       -0.51110218575964
C            6.82618528999319        0.53275883499330       -1.60263812713419
C            7.92298447192657       -1.21429372988207       -0.09973065573006
C            7.68141374483776       -2.11638174017862        0.87791019924131
S            6.02874365779693       -2.08446061165267        1.34180620937750
S            2.87963960199875       -1.27201727280309        0.13243758056629
S           -0.76177745750773        1.26904233117061       -0.28602236418836
S           -4.93400394223157       -0.28122801159619       -0.32239272563412
Cl          -7.35877210204332       -2.60068399943509       -0.04928647121840
H           -6.51380658202149        0.46371268920454        2.06393275138069
H           -7.58524626802639       -0.69485707303692        1.56085143184045
H           -7.99782575723409        0.31971535892578        2.82690838145742
H           -7.90717415160223        2.24179952517934        1.23749128068802
H           -9.18149878634667        1.09773483895290        0.87567683809088
H           -7.89916386928489        1.70678762017463       -1.19656221713807
H           -7.77290877405680       -0.00155737164028       -0.84605822602514
H           -5.75245709880876        3.20452860779153       -0.69243786883116
H           -3.16852212485759        2.84534280522704       -0.58955105817741
H           -2.50011884910179       -1.85817900223122       -0.07988936096129
H            0.86216618778793       -2.85119054650555       -0.72475400890918
H           -0.58354935891879       -3.37517848051225        0.13741265372743
H            0.76942977205680       -2.68447596501833        1.03208166201009
H            7.10194925837886        1.52696493168987       -1.17945915468232
H            5.87601128496957        0.64410752634328       -2.09285357912474
H            7.58388005960211        0.28236486401014       -2.33413257744273
H            8.90151546288764       -1.04842892221163       -0.52564401898208
H            8.40589769817306       -2.77915691532387        1.31309613053182
