 xtb: 6.5.1 (fef0646)
          01242310063D

 48 50  0     0  0            999 V2000
   -7.5196    0.2580    1.9055 N   0  0  0  0  0  0  0  0  0  0  0  0
   -8.0889    1.2074    0.9123 C   0  0  0  0  0  0  0  0  0  0  0  0
   -7.4894    0.9932   -0.4754 C   0  0  0  0  0  0  0  0  0  0  0  0
   -6.0046    1.0860   -0.4722 C   0  0  0  0  0  0  0  0  0  0  0  0
   -5.2895    2.2347   -0.5902 C   0  0  0  0  0  0  0  0  0  0  0  0
   -3.8853    2.0409   -0.5324 C   0  0  0  0  0  0  0  0  0  0  0  0
   -3.5189    0.7354   -0.3672 C   0  0  0  0  0  0  0  0  0  0  0  0
   -2.1650    0.2543   -0.2707 C   0  0  0  0  0  0  0  0  0  0  0  0
   -1.7874   -1.0498   -0.1244 C   0  0  0  0  0  0  0  0  0  0  0  0
   -0.3839   -1.2520   -0.0474 C   0  0  0  0  0  0  0  0  0  0  0  0
    0.1967   -2.6131    0.1158 C   0  0  0  0  0  0  0  0  0  0  0  0
    0.3417   -0.0779   -0.1344 C   0  0  0  0  0  0  0  0  0  0  0  0
    1.7791    0.0535   -0.0799 C   0  0  0  0  0  0  0  0  0  0  0  0
    2.5023    1.2289   -0.1683 C   0  0  0  0  0  0  0  0  0  0  0  0
    1.9248    2.5019   -0.3307 C   0  0  0  0  0  0  0  0  0  0  0  0
    1.4151    3.5359   -0.4694 N   0  0  0  0  0  0  0  0  0  0  0  0
    3.9263    1.0448   -0.0728 C   0  0  0  0  0  0  0  0  0  0  0  0
    4.8360    2.1200   -0.0821 C   0  0  0  0  0  0  0  0  0  0  0  0
    5.6171    2.9793   -0.0998 N   0  0  0  0  0  0  0  0  0  0  0  0
    4.2979   -0.2770    0.0719 C   0  0  0  0  0  0  0  0  0  0  0  0
    5.6377   -0.8243    0.1929 C   0  0  0  0  0  0  0  0  0  0  0  0
    6.7759   -0.4676   -0.5003 C   0  0  0  0  0  0  0  0  0  0  0  0
    6.8416    0.5574   -1.5787 C   0  0  0  0  0  0  0  0  0  0  0  0
    7.9258   -1.2090   -0.0911 C   0  0  0  0  0  0  0  0  0  0  0  0
    7.6762   -2.1280    0.8683 C   0  0  0  0  0  0  0  0  0  0  0  0
    6.0141   -2.1160    1.3031 S   0  0  0  0  0  0  0  0  0  0  0  0
    2.8820   -1.2722    0.1172 S   0  0  0  0  0  0  0  0  0  0  0  0
   -0.7605    1.2645   -0.3210 S   0  0  0  0  0  0  0  0  0  0  0  0
   -4.9368   -0.2721   -0.2842 S   0  0  0  0  0  0  0  0  0  0  0  0
   -7.3599   -2.5684   -0.0149 Cl  0  0  0  0  0  0  0  0  0  0  0  0
   -6.5159    0.4541    2.0675 H   0  0  0  0  0  0  0  0  0  0  0  0
   -7.5757   -0.7048    1.5382 H   0  0  0  0  0  0  0  0  0  0  0  0
   -8.0038    0.2917    2.8174 H   0  0  0  0  0  0  0  0  0  0  0  0
   -7.9030    2.2352    1.2457 H   0  0  0  0  0  0  0  0  0  0  0  0
   -9.1799    1.0964    0.8769 H   0  0  0  0  0  0  0  0  0  0  0  0
   -7.8985    1.7150   -1.1924 H   0  0  0  0  0  0  0  0  0  0  0  0
   -7.7755    0.0047   -0.8516 H   0  0  0  0  0  0  0  0  0  0  0  0
   -5.7508    3.2034   -0.7108 H   0  0  0  0  0  0  0  0  0  0  0  0
   -3.1671    2.8430   -0.6081 H   0  0  0  0  0  0  0  0  0  0  0  0
   -2.5005   -1.8574   -0.0698 H   0  0  0  0  0  0  0  0  0  0  0  0
    0.8603   -2.8533   -0.7159 H   0  0  0  0  0  0  0  0  0  0  0  0
   -0.5839   -3.3741    0.1507 H   0  0  0  0  0  0  0  0  0  0  0  0
    0.7710   -2.6807    1.0406 H   0  0  0  0  0  0  0  0  0  0  0  0
    7.1064    1.5325   -1.1688 H   0  0  0  0  0  0  0  0  0  0  0  0
    5.8815    0.6536   -2.0874 H   0  0  0  0  0  0  0  0  0  0  0  0
    7.5895    0.2914   -2.3268 H   0  0  0  0  0  0  0  0  0  0  0  0
    8.9033   -1.0449   -0.5202 H   0  0  0  0  0  0  0  0  0  0  0  0
    8.4032   -2.7852    1.3083 H   0  0  0  0  0  0  0  0  0  0  0  0
  1  2  1  0  0  0  0
  2  3  1  0  0  0  0
  3  4  1  0  0  0  0
  4  5  2  0  0  0  0
  5  6  4  0  0  0  0
  6  7  2  0  0  0  0
  7  8  1  0  0  0  0
  8  9  4  0  0  0  0
  9 10  4  0  0  0  0
 10 11  1  0  0  0  0
 10 12  4  0  0  0  0
 12 13  1  0  0  0  0
 13 14  4  0  0  0  0
 14 15  1  0  0  0  0
 15 16  3  0  0  0  0
 14 17  1  0  0  0  0
 17 18  1  0  0  0  0
 18 19  3  0  0  0  0
 17 20  4  0  0  0  0
 20 21  1  0  0  0  0
 21 22  4  0  0  0  0
 22 23  1  0  0  0  0
 22 24  4  0  0  0  0
 24 25  2  0  0  0  0
 21 26  1  0  0  0  0
 25 26  1  0  0  0  0
 13 27  1  0  0  0  0
 20 27  1  0  0  0  0
  8 28  1  0  0  0  0
 12 28  1  0  0  0  0
  4 29  1  0  0  0  0
  7 29  1  0  0  0  0
  1 31  1  0  0  0  0
  1 32  1  0  0  0  0
  1 33  1  0  0  0  0
  2 34  1  0  0  0  0
  2 35  1  0  0  0  0
  3 36  1  0  0  0  0
  3 37  1  0  0  0  0
  5 38  1  0  0  0  0
  6 39  1  0  0  0  0
  9 40  1  0  0  0  0
 11 41  1  0  0  0  0
 11 42  1  0  0  0  0
 11 43  1  0  0  0  0
 23 44  1  0  0  0  0
 23 45  1  0  0  0  0
 23 46  1  0  0  0  0
 24 47  1  0  0  0  0
 25 48  1  0  0  0  0
M  END
