13
1.708
N           -0.17702  -1.78407   0.32474
C            1.03476  -1.08469  -0.17991
C            1.25316   0.26059   0.50153
C            2.40515   0.95553   0.03843
N            3.34811   1.50802  -0.35074
Cl          -2.93143   0.27798  -0.16880
H           -0.33060  -2.68791  -0.14983
H           -1.02318  -1.20184   0.17894
H           -0.10270  -1.96920   1.33696
H            0.95425  -0.93807  -1.26417
H            1.91779  -1.71882  -0.03514
H            1.33262   0.11470   1.58501
H            0.37002   0.89319   0.35634
