 xtb: 6.5.1 (fef0646)
          01242316563D

 23 22  0     0  0            999 V2000
   -2.9442   -1.2223   -0.8442 N   0  0  0  0  0  0  0  0  0  0  0  0
   -1.9585   -2.0708   -0.1125 C   0  0  0  0  0  0  0  0  0  0  0  0
   -0.7092   -1.3308    0.2025 C   0  0  0  0  0  0  0  0  0  0  0  0
    0.2600   -1.1511   -0.6906 C   0  0  0  0  0  0  0  0  0  0  0  0
    1.4922   -0.3963   -0.4518 C   0  0  0  0  0  0  0  0  0  0  0  0
    1.9789   -0.1643    0.8345 C   0  0  0  0  0  0  0  0  0  0  0  0
    3.1438    0.5475    1.0315 C   0  0  0  0  0  0  0  0  0  0  0  0
    3.8475    1.0396   -0.0499 C   0  0  0  0  0  0  0  0  0  0  0  0
    3.3843    0.8154   -1.3314 C   0  0  0  0  0  0  0  0  0  0  0  0
    2.2202    0.1038   -1.5311 C   0  0  0  0  0  0  0  0  0  0  0  0
   -3.5022    1.5928    1.1685 Cl  0  0  0  0  0  0  0  0  0  0  0  0
   -2.5538   -0.8960   -1.7385 H   0  0  0  0  0  0  0  0  0  0  0  0
   -3.1720   -0.3842   -0.2873 H   0  0  0  0  0  0  0  0  0  0  0  0
   -3.8245   -1.7245   -1.0423 H   0  0  0  0  0  0  0  0  0  0  0  0
   -1.7166   -2.9586   -0.7089 H   0  0  0  0  0  0  0  0  0  0  0  0
   -2.4126   -2.4556    0.8094 H   0  0  0  0  0  0  0  0  0  0  0  0
   -0.6278   -0.8617    1.1682 H   0  0  0  0  0  0  0  0  0  0  0  0
    0.1341   -1.5757   -1.6723 H   0  0  0  0  0  0  0  0  0  0  0  0
    1.4455   -0.5591    1.6821 H   0  0  0  0  0  0  0  0  0  0  0  0
    3.5074    0.7181    2.0321 H   0  0  0  0  0  0  0  0  0  0  0  0
    4.7579    1.5959    0.1057 H   0  0  0  0  0  0  0  0  0  0  0  0
    3.9338    1.1973   -2.1769 H   0  0  0  0  0  0  0  0  0  0  0  0
    1.8584   -0.0689   -2.5308 H   0  0  0  0  0  0  0  0  0  0  0  0
  1  2  1  0  0  0  0
  2  3  1  0  0  0  0
  3  4  2  0  0  0  0
  4  5  1  0  0  0  0
  5  6  4  0  0  0  0
  6  7  4  0  0  0  0
  7  8  4  0  0  0  0
  8  9  4  0  0  0  0
  5 10  4  0  0  0  0
  9 10  4  0  0  0  0
  1 12  1  0  0  0  0
  1 13  1  0  0  0  0
  1 14  1  0  0  0  0
  2 15  1  0  0  0  0
  2 16  1  0  0  0  0
  3 17  1  0  0  0  0
  4 18  1  0  0  0  0
  6 19  1  0  0  0  0
  7 20  1  0  0  0  0
  8 21  1  0  0  0  0
  9 22  1  0  0  0  0
 10 23  1  0  0  0  0
M  END
