24
0.248
N            2.62106  -0.19103   0.80895
C            2.04478  -0.24276  -0.56721
C            0.51507  -0.09792  -0.61962
C            0.02081   1.26473  -0.08201
C           -1.50328   1.40831  -0.24838
C           -2.24939   0.25213   0.44288
C           -1.74829  -1.11614  -0.05524
C           -0.22306  -1.24310   0.11089
H            2.40787   0.70082   1.26938
H            3.64243  -0.28959   0.78635
H            2.25159  -0.94644   1.39710
H            2.33623  -1.18850  -1.03674
H            2.50485   0.54591  -1.17228
H            0.20763  -0.14933  -1.67692
H            0.55278   2.08560  -0.57691
H            0.27440   1.34296   0.97928
H           -1.75378   1.41695  -1.31519
H           -1.84410   2.37639   0.14074
H           -3.33223   0.34534   0.28898
H           -2.10085   0.32055   1.52654
H           -2.01049  -1.23679  -1.11239
H           -2.26283  -1.93141   0.46945
H            0.13501  -2.21615  -0.24528
H            0.02578  -1.20565   1.17554
