 xtb: 6.5.1 (fef0646)
          02032321163D

 12 10  0     0  0            999 V2000
    0.5381   -1.3085   -0.5416 N   0  0  0  0  0  0  0  0  0  0  0  0
    1.4297   -0.9484    0.5882 C   0  0  0  0  0  0  0  0  0  0  0  0
    1.6296    0.5565    0.6390 C   0  0  0  0  0  0  0  0  0  0  0  0
    2.0794    1.0312   -0.5302 F   0  0  0  0  0  0  0  0  0  0  0  0
   -2.5733    0.2395    0.0306 Cl  0  0  0  0  0  0  0  0  0  0  0  0
    0.9235   -0.9378   -1.4178 H   0  0  0  0  0  0  0  0  0  0  0  0
   -0.3943   -0.8825   -0.4123 H   0  0  0  0  0  0  0  0  0  0  0  0
    0.4180   -2.3251   -0.6378 H   0  0  0  0  0  0  0  0  0  0  0  0
    2.3999   -1.4402    0.4569 H   0  0  0  0  0  0  0  0  0  0  0  0
    1.0192   -1.3234    1.5334 H   0  0  0  0  0  0  0  0  0  0  0  0
    2.3357    0.8424    1.4288 H   0  0  0  0  0  0  0  0  0  0  0  0
    0.6821    1.0593    0.8660 H   0  0  0  0  0  0  0  0  0  0  0  0
  1  2  1  0  0  0  0
  2  3  1  0  0  0  0
  3  4  1  0  0  0  0
  1  6  1  0  0  0  0
  1  7  1  0  0  0  0
  1  8  1  0  0  0  0
  2  9  1  0  0  0  0
  2 10  1  0  0  0  0
  3 11  1  0  0  0  0
  3 12  1  0  0  0  0
M  END
