 xtb: 6.5.1 (fef0646)
          01242310113D

 12 10  0     0  0            999 V2000
    0.5268    1.2763    0.5513 N   0  0  0  0  0  0  0  0  0  0  0  0
    1.4418    0.9605   -0.5686 C   0  0  0  0  0  0  0  0  0  0  0  0
    1.6512   -0.5405   -0.6509 C   0  0  0  0  0  0  0  0  0  0  0  0
    2.0155   -1.0401    0.5316 F   0  0  0  0  0  0  0  0  0  0  0  0
   -2.5489   -0.2310   -0.0397 Cl  0  0  0  0  0  0  0  0  0  0  0  0
   -0.4018    0.8446    0.3972 H   0  0  0  0  0  0  0  0  0  0  0  0
    0.3938    2.2936    0.6841 H   0  0  0  0  0  0  0  0  0  0  0  0
    0.9009    0.8807    1.4259 H   0  0  0  0  0  0  0  0  0  0  0  0
    2.4052    1.4553   -0.3999 H   0  0  0  0  0  0  0  0  0  0  0  0
    1.0492    1.3592   -1.5120 H   0  0  0  0  0  0  0  0  0  0  0  0
    2.4134   -0.8037   -1.3946 H   0  0  0  0  0  0  0  0  0  0  0  0
    0.7242   -1.0406   -0.9550 H   0  0  0  0  0  0  0  0  0  0  0  0
  1  2  1  0  0  0  0
  2  3  1  0  0  0  0
  3  4  1  0  0  0  0
  1  6  1  0  0  0  0
  1  7  1  0  0  0  0
  1  8  1  0  0  0  0
  2  9  1  0  0  0  0
  2 10  1  0  0  0  0
  3 11  1  0  0  0  0
  3 12  1  0  0  0  0
M  END
