40
 xtb: 6.5.1 (fef0646)
N            0.27791871805113       -1.45637944520113        0.84256994918971
C           -0.07138246088081       -2.83961659767307        0.40575251603702
C           -1.04773211840679       -2.88829444900150       -0.76816637595014
C           -0.48163565160028       -2.32119007839109       -2.08900061916352
C           -1.09177977471519       -0.98247768153896       -2.50549819541640
N           -0.81526206723046        0.10922415487591       -1.56563564076240
C           -1.90312842338841        0.89914321713629       -0.91377537668547
C           -1.10120431339346        1.98742105481840       -0.09274255770068
C           -1.19375479220588        1.81853962508599        1.39785460442559
C           -2.00394327161260        0.94296169264716        1.98950900151158
C           -2.88012606093245        0.08094199571530        1.23367637787263
C           -2.85783503744106        0.05518519189379       -0.09608209465000
C            0.43295735294172        0.74221180910349       -1.44361725493256
C            0.32623938666492        1.84170778752009       -0.58630438545473
C            1.44130549003586        2.59590212958998       -0.27936606412856
C            2.66448394409316        2.24808979434049       -0.83017280265289
C            2.77191112360129        1.15922149860898       -1.68275104500828
C            1.66403644471742        0.39949326403968       -1.99881390546720
Cl           2.19716937570453       -1.13986762454128        3.27331986228994
H           -0.63494090974313       -0.93712892306926        1.04003024660185
H            0.65144651493408       -0.92750579362316        0.02218161983497
H            0.86510619394569       -1.40872103516212        1.61105193234581
H           -0.51929912302176       -3.39129793834751        1.23438600978875
H            0.82616041874551       -3.37497232535299        0.12059904038553
H           -1.98937435211500       -2.37623862766167       -0.54310310423817
H           -1.38052660900383       -3.94803047363465       -0.96382274007581
H           -0.63512156155033       -3.03834595735529       -2.93609446399032
H            0.59343252802304       -2.22539353157922       -2.01760925352806
H           -2.18089835848090       -1.06820352011280       -2.62137205057084
H           -0.72522813662403       -0.65775607873054       -3.49728362831429
H           -2.46488637429807        1.38815292812269       -1.72295501469126
H           -1.47185179172434        2.98860720077453       -0.36100220300025
H           -0.54073312376837        2.43061366382396        2.00173744688215
H           -2.01554488434695        0.87138706160648        3.06634851401738
H           -3.56930471011999       -0.55107153995186        1.77248882838306
H           -3.53492316717543       -0.59477956126293       -0.62666675803197
H            1.34997271904885        3.43700738091984        0.38349290233514
H            3.54078981698881        2.83150042153418       -0.59553753694682
H            3.73086071167373        0.90618266414164       -2.10863682563774
H            1.73915776697695       -0.43313156085655       -2.67550656003690
