 xtb: 6.5.1 (fef0646)
          01242310113D

 40 41  0     0  0            999 V2000
    0.1983   -1.4587    0.7790 N   0  0  0  0  0  0  0  0  0  0  0  0
   -0.1139   -2.8531    0.3643 C   0  0  0  0  0  0  0  0  0  0  0  0
   -1.0749   -2.9140   -0.8190 C   0  0  0  0  0  0  0  0  0  0  0  0
   -0.4983   -2.3237   -2.1243 C   0  0  0  0  0  0  0  0  0  0  0  0
   -1.0982   -0.9742   -2.5209 C   0  0  0  0  0  0  0  0  0  0  0  0
   -0.8167    0.1043   -1.5671 N   0  0  0  0  0  0  0  0  0  0  0  0
   -1.9042    0.8969   -0.9157 C   0  0  0  0  0  0  0  0  0  0  0  0
   -1.1021    1.9860   -0.0958 C   0  0  0  0  0  0  0  0  0  0  0  0
   -1.1952    1.8208    1.3953 C   0  0  0  0  0  0  0  0  0  0  0  0
   -2.0039    0.9452    1.9889 C   0  0  0  0  0  0  0  0  0  0  0  0
   -2.8764    0.0781    1.2342 C   0  0  0  0  0  0  0  0  0  0  0  0
   -2.8559    0.0513   -0.0961 C   0  0  0  0  0  0  0  0  0  0  0  0
    0.4331    0.7425   -1.4481 C   0  0  0  0  0  0  0  0  0  0  0  0
    0.3253    1.8407   -0.5898 C   0  0  0  0  0  0  0  0  0  0  0  0
    1.4403    2.5950   -0.2819 C   0  0  0  0  0  0  0  0  0  0  0  0
    2.6633    2.2477   -0.8329 C   0  0  0  0  0  0  0  0  0  0  0  0
    2.7714    1.1596   -1.6864 C   0  0  0  0  0  0  0  0  0  0  0  0
    1.6638    0.3997   -2.0032 C   0  0  0  0  0  0  0  0  0  0  0  0
    2.3239   -1.1084    3.4398 Cl  0  0  0  0  0  0  0  0  0  0  0  0
   -0.6598   -0.9427    1.0234 H   0  0  0  0  0  0  0  0  0  0  0  0
    0.6241   -0.9268    0.0019 H   0  0  0  0  0  0  0  0  0  0  0  0
    0.8425   -1.4058    1.5878 H   0  0  0  0  0  0  0  0  0  0  0  0
   -0.5318   -3.3951    1.2223 H   0  0  0  0  0  0  0  0  0  0  0  0
    0.8167   -3.3753    0.1121 H   0  0  0  0  0  0  0  0  0  0  0  0
   -2.0011   -2.3892   -0.5603 H   0  0  0  0  0  0  0  0  0  0  0  0
   -1.3824   -3.9566   -0.9823 H   0  0  0  0  0  0  0  0  0  0  0  0
   -0.6401   -3.0343   -2.9504 H   0  0  0  0  0  0  0  0  0  0  0  0
    0.5887   -2.2291   -2.0259 H   0  0  0  0  0  0  0  0  0  0  0  0
   -2.1829   -1.0635   -2.6265 H   0  0  0  0  0  0  0  0  0  0  0  0
   -0.7264   -0.6525   -3.5005 H   0  0  0  0  0  0  0  0  0  0  0  0
   -2.4655    1.3871   -1.7234 H   0  0  0  0  0  0  0  0  0  0  0  0
   -1.4721    2.9881   -0.3623 H   0  0  0  0  0  0  0  0  0  0  0  0
   -0.5420    2.4324    2.0007 H   0  0  0  0  0  0  0  0  0  0  0  0
   -2.0159    0.8730    3.0662 H   0  0  0  0  0  0  0  0  0  0  0  0
   -3.5678   -0.5521    1.7729 H   0  0  0  0  0  0  0  0  0  0  0  0
   -3.5340   -0.5967   -0.6262 H   0  0  0  0  0  0  0  0  0  0  0  0
    1.3496    3.4365    0.3830 H   0  0  0  0  0  0  0  0  0  0  0  0
    3.5404    2.8313   -0.5960 H   0  0  0  0  0  0  0  0  0  0  0  0
    3.7308    0.9064   -2.1095 H   0  0  0  0  0  0  0  0  0  0  0  0
    1.7391   -0.4332   -2.6766 H   0  0  0  0  0  0  0  0  0  0  0  0
  1  2  1  0  0  0  0
  2  3  1  0  0  0  0
  3  4  1  0  0  0  0
  4  5  1  0  0  0  0
  5  6  1  0  0  0  0
  6  7  1  0  0  0  0
  7  8  1  0  0  0  0
  8  9  1  0  0  0  0
  9 10  2  0  0  0  0
 10 11  1  0  0  0  0
  7 12  1  0  0  0  0
 11 12  2  0  0  0  0
  6 13  1  0  0  0  0
  8 14  1  0  0  0  0
 13 14  4  0  0  0  0
 14 15  4  0  0  0  0
 15 16  4  0  0  0  0
 16 17  4  0  0  0  0
 13 18  4  0  0  0  0
 17 18  4  0  0  0  0
  1 20  1  0  0  0  0
  1 21  1  0  0  0  0
  1 22  1  0  0  0  0
  2 23  1  0  0  0  0
  2 24  1  0  0  0  0
  3 25  1  0  0  0  0
  3 26  1  0  0  0  0
  4 27  1  0  0  0  0
  4 28  1  0  0  0  0
  5 29  1  0  0  0  0
  5 30  1  0  0  0  0
  7 31  1  0  0  0  0
  8 32  1  0  0  0  0
  9 33  1  0  0  0  0
 10 34  1  0  0  0  0
 11 35  1  0  0  0  0
 12 36  1  0  0  0  0
 15 37  1  0  0  0  0
 16 38  1  0  0  0  0
 17 39  1  0  0  0  0
 18 40  1  0  0  0  0
M  END
