 xtb: 6.5.1 (fef0646)
          01242317073D

 22 21  0     0  0            999 V2000
   -1.9328   -1.8133    0.2697 N   0  0  0  0  0  0  0  0  0  0  0  0
   -1.0581   -2.3684   -0.8021 C   0  0  0  0  0  0  0  0  0  0  0  0
    0.4254   -2.2768   -0.4500 C   0  0  0  0  0  0  0  0  0  0  0  0
    0.9032   -0.8655   -0.2676 C   0  0  0  0  0  0  0  0  0  0  0  0
    1.1537   -0.3563    0.9990 C   0  0  0  0  0  0  0  0  0  0  0  0
    1.5867    0.9446    1.1627 C   0  0  0  0  0  0  0  0  0  0  0  0
    1.7695    1.7559    0.0611 C   0  0  0  0  0  0  0  0  0  0  0  0
    1.5167    1.2642   -1.2036 C   0  0  0  0  0  0  0  0  0  0  0  0
    1.0855   -0.0376   -1.3656 C   0  0  0  0  0  0  0  0  0  0  0  0
   -1.7393    1.6941    0.5850 Cl  0  0  0  0  0  0  0  0  0  0  0  0
   -1.7635   -0.8006    0.3979 H   0  0  0  0  0  0  0  0  0  0  0  0
   -1.7467   -2.2737    1.1713 H   0  0  0  0  0  0  0  0  0  0  0  0
   -2.9326   -1.9341    0.0534 H   0  0  0  0  0  0  0  0  0  0  0  0
   -1.2482   -1.8337   -1.7399 H   0  0  0  0  0  0  0  0  0  0  0  0
   -1.3363   -3.4116   -0.9967 H   0  0  0  0  0  0  0  0  0  0  0  0
    1.0336   -2.7596   -1.2240 H   0  0  0  0  0  0  0  0  0  0  0  0
    0.6186   -2.8434    0.4671 H   0  0  0  0  0  0  0  0  0  0  0  0
    1.0073   -0.9882    1.8589 H   0  0  0  0  0  0  0  0  0  0  0  0
    1.7792    1.3277    2.1521 H   0  0  0  0  0  0  0  0  0  0  0  0
    2.1059    2.7723    0.1884 H   0  0  0  0  0  0  0  0  0  0  0  0
    1.6556    1.8968   -2.0656 H   0  0  0  0  0  0  0  0  0  0  0  0
    0.8878   -0.4232   -2.3518 H   0  0  0  0  0  0  0  0  0  0  0  0
  1  2  1  0  0  0  0
  2  3  1  0  0  0  0
  3  4  1  0  0  0  0
  4  5  4  0  0  0  0
  5  6  4  0  0  0  0
  6  7  4  0  0  0  0
  7  8  4  0  0  0  0
  4  9  4  0  0  0  0
  8  9  4  0  0  0  0
  1 11  1  0  0  0  0
  1 12  1  0  0  0  0
  1 13  1  0  0  0  0
  2 14  1  0  0  0  0
  2 15  1  0  0  0  0
  3 16  1  0  0  0  0
  3 17  1  0  0  0  0
  5 18  1  0  0  0  0
  6 19  1  0  0  0  0
  7 20  1  0  0  0  0
  8 21  1  0  0  0  0
  9 22  1  0  0  0  0
M  END
