25
2.135
N           -4.68518  -0.15356   0.10334
C           -3.24936  -0.56956   0.09829
C           -2.29381   0.61888   0.02260
C           -0.82517   0.28727   0.00585
C            0.09480   1.32311  -0.07472
C            1.44863   1.08127  -0.09291
C            1.93922  -0.22223  -0.03035
O            3.28708  -0.57387  -0.04189
C            4.19463   0.49922  -0.12021
C            1.01257  -1.26120   0.05048
C           -0.33885  -1.01163   0.06850
H           -5.30926  -0.96528   0.15024
H           -4.91255   0.37211  -0.74646
H           -4.88505   0.44732   0.90930
H           -3.07359  -1.24122  -0.74930
H           -3.04266  -1.15549   1.00081
H           -2.48814   1.28666   0.86764
H           -2.52581   1.20518  -0.87194
H           -0.26577   2.33706  -0.12363
H            2.13157   1.90924  -0.15605
H            5.20226   0.08081  -0.11959
H            4.07403   1.14676   0.75027
H            4.03460   1.04891  -1.04962
H            1.38777  -2.26908   0.09880
H           -1.02383  -1.83886   0.13203
