 xtb: 6.5.1 (fef0646)
          01242310113D

 17 16  0     0  0            999 V2000
   -3.5725   -2.6187   -0.1803 N   0  0  0  0  0  0  0  0  0  0  0  0
   -3.2165   -1.2966    0.4128 C   0  0  0  0  0  0  0  0  0  0  0  0
   -2.0284   -0.6368   -0.2802 C   0  0  0  0  0  0  0  0  0  0  0  0
   -1.6498    0.7255    0.3179 C   0  0  0  0  0  0  0  0  0  0  0  0
   -0.4677    1.3885   -0.3658 C   0  0  0  0  0  0  0  0  0  0  0  0
    1.3002    0.3268    0.0159 I   0  0  0  0  0  0  0  0  0  0  0  0
   -4.3771   -3.0483    0.3004 H   0  0  0  0  0  0  0  0  0  0  0  0
   -2.7851   -3.2800   -0.1171 H   0  0  0  0  0  0  0  0  0  0  0  0
   -3.8208   -2.5255   -1.1757 H   0  0  0  0  0  0  0  0  0  0  0  0
   -3.0003   -1.4259    1.4804 H   0  0  0  0  0  0  0  0  0  0  0  0
   -4.0893   -0.6338    0.3667 H   0  0  0  0  0  0  0  0  0  0  0  0
   -2.2497   -0.5206   -1.3472 H   0  0  0  0  0  0  0  0  0  0  0  0
   -1.1653   -1.3102   -0.2392 H   0  0  0  0  0  0  0  0  0  0  0  0
   -1.4303    0.6067    1.3881 H   0  0  0  0  0  0  0  0  0  0  0  0
   -2.5242    1.3912    0.2747 H   0  0  0  0  0  0  0  0  0  0  0  0
   -0.2870    2.4003    0.0042 H   0  0  0  0  0  0  0  0  0  0  0  0
   -0.5985    1.4439   -1.4477 H   0  0  0  0  0  0  0  0  0  0  0  0
  1  2  1  0  0  0  0
  2  3  1  0  0  0  0
  3  4  1  0  0  0  0
  4  5  1  0  0  0  0
  5  6  1  0  0  0  0
  1  7  1  0  0  0  0
  1  8  1  0  0  0  0
  1  9  1  0  0  0  0
  2 10  1  0  0  0  0
  2 11  1  0  0  0  0
  3 12  1  0  0  0  0
  3 13  1  0  0  0  0
  4 14  1  0  0  0  0
  4 15  1  0  0  0  0
  5 16  1  0  0  0  0
  5 17  1  0  0  0  0
M  CHG  1   1   1
M  END
