 xtb: 6.5.1 (fef0646)
          01232313443D

 12 10  0     0  0            999 V2000
    1.0962    0.2989    0.2313 N   0  0  0  0  0  0  0  0  0  0  0  0
    2.5519    0.2592    0.0911 C   0  0  0  0  0  0  0  0  0  0  0  0
    3.0899   -1.0352    0.6811 C   0  0  0  0  0  0  0  0  0  0  0  0
   -0.1061   -1.9814   -1.1647 Cl  0  0  0  0  0  0  0  0  0  0  0  0
    0.7089    1.1502   -0.1595 H   0  0  0  0  0  0  0  0  0  0  0  0
    0.8281    0.2333    1.2080 H   0  0  0  0  0  0  0  0  0  0  0  0
    0.4683   -0.9185   -0.5099 H   0  0  0  0  0  0  0  0  0  0  0  0
    3.0342    1.1195    0.5772 H   0  0  0  0  0  0  0  0  0  0  0  0
    2.7772    0.3009   -0.9768 H   0  0  0  0  0  0  0  0  0  0  0  0
    2.8843   -1.0829    1.7487 H   0  0  0  0  0  0  0  0  0  0  0  0
    4.1645   -1.0964    0.5326 H   0  0  0  0  0  0  0  0  0  0  0  0
    2.6166   -1.8849    0.1977 H   0  0  0  0  0  0  0  0  0  0  0  0
  1  2  1  0  0  0  0
  2  3  1  0  0  0  0
  1  5  1  0  0  0  0
  1  6  1  0  0  0  0
  4  7  1  0  0  0  0
  2  8  1  0  0  0  0
  2  9  1  0  0  0  0
  3 10  1  0  0  0  0
  3 11  1  0  0  0  0
  3 12  1  0  0  0  0
M  END
