46
 xtb: 6.5.1 (fef0646)
N           -6.35174263309524        3.79266058913731       -0.11606757527433
C           -7.21716803674134        2.79988472192345        0.58393940745219
C           -7.28468655424999        1.45471663042027       -0.14299327438394
C           -6.01408617381076        0.67465020063601       -0.10019489145728
C           -5.92203111031953       -0.68142596985000       -0.08053282493706
C           -4.58960905823502       -1.17398662892533       -0.05966396172501
C           -3.63326000464242       -0.19599150060321       -0.06399996292261
C           -2.20712861459729       -0.39799837357545       -0.04858667009230
C           -1.56460596702420       -1.60625790198495       -0.03676956348425
C           -0.14824438153978       -1.52711586471690       -0.02240618791180
C            0.71186459043871       -2.74195447093777       -0.00553894160250
C            0.31831877985236       -0.22887539477145       -0.02273889144107
C            1.68595354185603        0.22125199027234       -0.00501107923349
C            2.06592266012132        1.53841128808884        0.03684882577665
C            3.46267320960319        1.74075644513353        0.04619771457574
C            4.20089531542117        0.58652604836584        0.01091977037555
C            5.64380316135498        0.54314605595534        0.01116593650165
C            6.45677838430043       -0.56759105908735       -0.01203780288650
C            5.97708074042958       -1.97691294564402       -0.04507777652212
C            7.84562403878034       -0.23589791508459        0.00162425815073
C            8.09513383397877        1.09209473335328        0.03455399606054
S            6.62510499560666        1.99084834173761        0.06759979675172
S            3.11597371479863       -0.78225802538560       -0.05703647650946
S           -1.02896867741317        0.88214452503315       -0.04055345377139
S           -4.41715505789975        1.36087624782579       -0.09254635234786
Cl          -3.50471782273650       -4.49265681468996        0.16354928903422
H           -5.41417687862125        3.39491338207860       -0.23803486398877
H           -6.26336596997486        4.67757367443032        0.40405460915768
H           -6.71912228694551        4.00448857153799       -1.05397251819800
H           -8.22341585451034        3.22396772904591        0.70092196374235
H           -6.84431142001795        2.64687952029652        1.60517453272414
H           -7.56069246544941        1.61558416768234       -1.18323982698485
H           -8.08732889204344        0.84053107467457        0.28952031432772
H           -6.78836155816790       -1.32491557738609       -0.05758646666651
H           -4.35093181212820       -2.22537856896277       -0.01220841468468
H           -2.09067372875773       -2.54672662010526       -0.00660327572602
H            0.11102790358326       -3.65085676705865        0.03569191964938
H            1.35079539241796       -2.74624917990063        0.90196901338195
H            1.35193032378072       -2.78026804070131       -0.86336610491250
H            1.35181769307628        2.34633723941332        0.00088151596908
H            3.91827922287019        2.71794442897775        0.01457123305242
H            6.81128178194096       -2.67879643065108       -0.01522159173429
H            5.37514690275740       -2.17084591397996       -0.90184566236132
H            5.36459907775100       -2.18790129397849        0.86326897885883
H            8.62076388111474       -0.98685940736343        0.01151453743990
H            9.06901968629635        1.54345283215237        0.03984603838749
