25
0.865
N           -1.41922  -1.85756  -0.09065
C           -0.64961  -1.58581  -1.33923
C            0.57338  -0.67994  -1.12719
C            1.61707  -1.30051  -0.17101
C            2.86540  -0.40716  -0.05773
C            2.48873   1.01185   0.40640
C            1.42927   1.63734  -0.51934
C            0.18994   0.73151  -0.62864
Cl          -2.67168   1.10699   1.37319
H           -0.83267  -2.32143   0.61619
H           -2.23135  -2.46625  -0.26629
H           -1.77473  -0.98212   0.32949
H           -1.31529  -1.12974  -2.08126
H           -0.32581  -2.53694  -1.77745
H            1.07407  -0.54733  -2.10125
H            1.87833  -2.31547  -0.49648
H            1.16650  -1.41603   0.82041
H            3.36129  -0.35035  -1.03458
H            3.60544  -0.85607   0.61906
H            3.38013   1.65150   0.46595
H            2.09472   0.96616   1.42930
H            1.86019   1.78545  -1.51713
H            1.14879   2.64084  -0.17082
H           -0.57474   1.17348  -1.27993
H           -0.27787   0.64348   0.35746
