25
 xtb: 6.5.1 (fef0646)
N           -1.27261857634240        2.02759092629693        0.17695750272678
C           -0.49007651992759        1.67173597913091        1.38872562572375
C            0.65922033743224        0.68785364835502        1.11395789395405
C            1.66626158830772        1.22627768304160        0.07100542104036
C            2.86134356361329        0.26949099995582       -0.08504759851352
C            2.38892069217792       -1.14282547039612       -0.47533131892827
C            1.35586905113014       -1.68457590473084        0.52950933686747
C            0.16964729830255       -0.71481175989434        0.68124775774607
Cl          -2.80345409131664       -1.13549125160041       -1.36232201891168
H           -0.74202250549368        2.38301133241044       -0.59602112593207
H           -2.10858137292730        2.58142395072479        0.33476875736546
H           -1.71683350501978        1.07881604806446       -0.26520075434890
H           -1.17802766979282        1.23074302333152        2.12804809142390
H           -0.13427161635064        2.58618501661893        1.76690503579348
H            1.20029061127389        0.55655306243290        2.05219223940785
H            1.97724261767913        2.23621896123157        0.33619295749183
H            1.15419129028922        1.31822204471996       -0.90230930609361
H            3.40902670243845        0.23009526284232        0.86587261115237
H            3.57744646709722        0.66561818026935       -0.81773200136063
H            3.26060999404029       -1.82292998572152       -0.55645455968458
H            1.94990714785482       -1.11825848279473       -1.47163651531398
H            1.85309479967329       -1.82154495793915        1.51266322192331
H            1.03193572285741       -2.69427787824165        0.24085832495358
H           -0.56567028935277       -1.11856794502004        1.38899693859952
H           -0.34271487458915       -0.65888463082792       -0.28166309696916
