25
 xtb: 6.5.1 (fef0646)
N           -1.36177815342424       -1.98086617083533       -0.14951006856136
C           -0.61191716893516       -1.62274484089931       -1.38719111736492
C            0.58748604222818       -0.69317059617298       -1.14052208432918
C            1.62839241152273       -1.30726818481570       -0.17730440201120
C            2.86725622532381       -0.40191867238653       -0.05449782423612
C            2.47245383493792        1.01142657832933        0.41266818890219
C            1.40666302044444        1.62850672388785       -0.51183265755271
C            0.17756865869203        0.70848441317881       -0.63215592579600
Cl          -2.72558756986881        1.25685302241949        1.45518486522572
H           -0.81429514738161       -2.36526272427370        0.59125119386079
H           -2.21740145558830       -2.49593159872309       -0.28811132192279
H           -1.75309963697063       -1.02326747315391        0.32366340228141
H           -1.30919665517075       -1.13659467407975       -2.08832072993481
H           -0.30826415296628       -2.53980753943797       -1.80335593371260
H            1.08159077485682       -0.54507382571750       -2.10253848681494
H            1.88511200309310       -2.31667552883462       -0.49811080556355
H            1.16817868504330       -1.41904382054325        0.81772414163870
H            3.36319815217326       -0.34656308234572       -1.03281250506638
H            3.60621949645796       -0.85289159476335        0.62078747859286
H            3.37317037740116        1.65431867232188        0.46873630663043
H            2.08974561050181        0.96383756190182        1.43089116861569
H            1.85373145016271        1.78631908727083       -1.51442495279254
H            1.13815960766846        2.63644531858384       -0.16688869122622
H           -0.57845737252153        1.16564916450781       -1.28153991575239
H           -0.28326205798143        0.63430087391354        0.35552773991069
