 xtb: 6.5.1 (fef0646)
          01242316403D

 18 16  0     0  0            999 V2000
    1.2678   -0.2443    0.3970 N   0  0  0  0  0  0  0  0  0  0  0  0
    2.7371   -0.1962    0.2612 C   0  0  0  0  0  0  0  0  0  0  0  0
    3.1304   -0.4872   -1.1822 C   0  0  0  0  0  0  0  0  0  0  0  0
    4.6361   -0.3198   -1.3904 C   0  0  0  0  0  0  0  0  0  0  0  0
    4.9878   -0.5658   -2.8432 C   0  0  0  0  0  0  0  0  0  0  0  0
    7.1268   -0.3733   -3.2098 I   0  0  0  0  0  0  0  0  0  0  0  0
    0.0998    1.6586   -1.6934 Cl  0  0  0  0  0  0  0  0  0  0  0  0
    0.9695    0.0146    1.3398 H   0  0  0  0  0  0  0  0  0  0  0  0
    0.9077   -1.1731    0.1628 H   0  0  0  0  0  0  0  0  0  0  0  0
    0.8334    0.4325   -0.2829 H   0  0  0  0  0  0  0  0  0  0  0  0
    3.1936   -0.9222    0.9351 H   0  0  0  0  0  0  0  0  0  0  0  0
    3.0755    0.8042    0.5294 H   0  0  0  0  0  0  0  0  0  0  0  0
    2.5879    0.2021   -1.8322 H   0  0  0  0  0  0  0  0  0  0  0  0
    2.8421   -1.5034   -1.4535 H   0  0  0  0  0  0  0  0  0  0  0  0
    5.1783   -1.0227   -0.7545 H   0  0  0  0  0  0  0  0  0  0  0  0
    4.9349    0.6914   -1.1083 H   0  0  0  0  0  0  0  0  0  0  0  0
    4.5074    0.1560   -3.4986 H   0  0  0  0  0  0  0  0  0  0  0  0
    4.7274   -1.5730   -3.1581 H   0  0  0  0  0  0  0  0  0  0  0  0
  1  2  1  0  0  0  0
  2  3  1  0  0  0  0
  3  4  1  0  0  0  0
  4  5  1  0  0  0  0
  5  6  1  0  0  0  0
  1  8  1  0  0  0  0
  1  9  1  0  0  0  0
  1 10  1  0  0  0  0
  2 11  1  0  0  0  0
  2 12  1  0  0  0  0
  3 13  1  0  0  0  0
  3 14  1  0  0  0  0
  4 15  1  0  0  0  0
  4 16  1  0  0  0  0
  5 17  1  0  0  0  0
  5 18  1  0  0  0  0
M  END
