 xtb: 6.5.1 (fef0646)
          01242310043D

 25 24  0     0  0            999 V2000
   -1.4300    1.8399   -0.1066 N   0  0  0  0  0  0  0  0  0  0  0  0
   -0.6335    1.6026   -1.3399 C   0  0  0  0  0  0  0  0  0  0  0  0
    0.5916    0.7020   -1.1164 C   0  0  0  0  0  0  0  0  0  0  0  0
    0.2048   -0.7326   -0.6877 C   0  0  0  0  0  0  0  0  0  0  0  0
    1.4493   -1.6281   -0.5617 C   0  0  0  0  0  0  0  0  0  0  0  0
    2.4609   -1.0280    0.4311 C   0  0  0  0  0  0  0  0  0  0  0  0
    2.8411    0.4105    0.0363 C   0  0  0  0  0  0  0  0  0  0  0  0
    1.5891    1.2958   -0.0945 C   0  0  0  0  0  0  0  0  0  0  0  0
   -2.6614   -1.1099    1.3396 Cl  0  0  0  0  0  0  0  0  0  0  0  0
   -0.8670    2.3063    0.6215 H   0  0  0  0  0  0  0  0  0  0  0  0
   -1.7810    0.9529    0.2970 H   0  0  0  0  0  0  0  0  0  0  0  0
   -2.2533    2.4403   -0.2886 H   0  0  0  0  0  0  0  0  0  0  0  0
   -0.3083    2.5669   -1.7485 H   0  0  0  0  0  0  0  0  0  0  0  0
   -1.2784    1.1572   -2.1068 H   0  0  0  0  0  0  0  0  0  0  0  0
    1.1316    0.6127   -2.0747 H   0  0  0  0  0  0  0  0  0  0  0  0
   -0.5273   -1.1574   -1.3869 H   0  0  0  0  0  0  0  0  0  0  0  0
   -0.3043   -0.6874    0.2810 H   0  0  0  0  0  0  0  0  0  0  0  0
    1.9236   -1.7318   -1.5459 H   0  0  0  0  0  0  0  0  0  0  0  0
    1.1672   -2.6481   -0.2646 H   0  0  0  0  0  0  0  0  0  0  0  0
    3.3561   -1.6612    0.5059 H   0  0  0  0  0  0  0  0  0  0  0  0
    2.0223   -1.0239    1.4372 H   0  0  0  0  0  0  0  0  0  0  0  0
    3.3766    0.3951   -0.9215 H   0  0  0  0  0  0  0  0  0  0  0  0
    3.5486    0.8404    0.7592 H   0  0  0  0  0  0  0  0  0  0  0  0
    1.8520    2.3256   -0.3705 H   0  0  0  0  0  0  0  0  0  0  0  0
    1.0969    1.3688    0.8814 H   0  0  0  0  0  0  0  0  0  0  0  0
  1  2  1  0  0  0  0
  2  3  1  0  0  0  0
  3  4  1  0  0  0  0
  4  5  1  0  0  0  0
  5  6  1  0  0  0  0
  6  7  1  0  0  0  0
  3  8  1  0  0  0  0
  7  8  1  0  0  0  0
  1 10  1  0  0  0  0
  1 11  1  0  0  0  0
  1 12  1  0  0  0  0
  2 13  1  0  0  0  0
  2 14  1  0  0  0  0
  3 15  1  0  0  0  0
  4 16  1  0  0  0  0
  4 17  1  0  0  0  0
  5 18  1  0  0  0  0
  5 19  1  0  0  0  0
  6 20  1  0  0  0  0
  6 21  1  0  0  0  0
  7 22  1  0  0  0  0
  7 23  1  0  0  0  0
  8 24  1  0  0  0  0
  8 25  1  0  0  0  0
M  END
