15

N          2.30651        0.09116        0.10462
C          0.86886        0.04007        0.01791
C          0.21788       -1.19117       -0.00062
C         -1.17552       -1.22333       -0.05929
C         -1.90211       -0.03243       -0.09932
C         -1.23912        1.19549       -0.08710
C          0.15368        1.23608       -0.02866
H          2.71737       -0.84456        0.01923
H          2.68388        0.67738       -0.64909
H          2.58149        0.48573        1.01181
H          0.75739       -2.13411        0.03356
H         -1.70429       -2.17583       -0.07136
H         -2.99073       -0.06148       -0.13994
H         -1.81639        2.11893       -0.12063
H          0.64742        2.20434       -0.01641
