  45

 N         -7.8019571835        1.9886169946        0.3150893876
 C         -8.1970701353        0.6789762334        0.9092865979
 C         -7.7419228280       -0.5161844259        0.0687526050
 C         -6.2673956371       -0.7294082271        0.0661375940
 C         -5.6369511295       -1.9395135838       -0.0025373766
 C         -4.2294832005       -1.8620280151       -0.0118482900
 C         -3.7352789340       -0.5776575482        0.0451162189
 C         -2.3640684064       -0.2092194890        0.0383158668
 C         -1.8668054963        1.0834421648        0.0795499052
 C         -0.4718890045        1.1792051673        0.0576866329
 C          0.2378784812        2.4859606916        0.0877415561
 C          0.1614859178       -0.0678340973       -0.0001292763
 C          1.5500058266       -0.3470570817       -0.0343379451
 C          2.0989777029       -1.6218137595       -0.0968534352
 C          3.4895671692       -1.6541433494       -0.1161697116
 C          4.0909054774       -0.4025464330       -0.0704850679
 C          5.4783847036       -0.0767897953       -0.0740754493
 C          6.5879468367       -0.9134768931       -0.0683890647
 C          6.5524665799       -2.4009142814       -0.0435287533
 C          7.8116681269       -0.1996442940       -0.0825552192
 C          7.6743693709        1.1511032691       -0.0939562554
 S          6.0177667168        1.5852519914       -0.0860702576
 S          2.8494838558        0.8131604253       -0.0062503719
 S         -1.0404042265       -1.3271261041       -0.0268926450
 S         -5.0797178739        0.5316533122        0.1254549341
 H         -8.0829889602        2.7861464997        0.9062852974
 H         -8.2297907067        2.1190467832       -0.6138329011
 H         -6.7787017154        2.0289995279        0.1920048263
 H         -9.2863616224        0.6621342156        1.0367002794
 H         -7.7778470062        0.5944139208        1.9184830076
 H         -8.0790314439       -0.3826734000       -0.9641884584
 H         -8.2282626766       -1.4315594495        0.4238111191
 H         -6.1743846024       -2.8738006795       -0.0531218618
 H         -3.5881373714       -2.7274435883       -0.0662671290
 H         -2.5112574198        1.9463790183        0.1205822644
 H         -0.4654605725        3.3164810498        0.1421202829
 H          0.8424143416        2.6182305135       -0.8095477169
 H          0.8967510515        2.5489748514        0.9537607720
 H          1.4869800449       -2.5094154210       -0.1284332752
 H          4.0398416983       -2.5773801833       -0.1727321016
 H          6.1062854999       -2.7963012094       -0.9559698835
 H          5.9877127248       -2.7639358370        0.8152409166
 H          7.5586243714       -2.8132923048        0.0329602977
 H          8.7709442988       -0.6945888559       -0.0818526871
 H          8.4775458674        1.8632153722       -0.1066258346
          45
        -68.49504056
 N         -7.1283436440       -2.5021896499        1.1460094926
 C         -8.0070774530       -1.3633434015        0.7562617296
 C         -7.5419510897       -0.7004476971       -0.5396870334
 C         -6.2498557521        0.0221094296       -0.3864684969
 C         -6.1060817565        1.3682491593       -0.2128793401
 C         -4.7699396558        1.7965077997       -0.0957434296
 C         -3.8460058664        0.7777883074       -0.1752502125
 C         -2.4326108415        0.9042092899       -0.1013590136
 C         -1.7129514449        2.0765974696        0.0752384356
 C         -0.3242114100        1.9163320797        0.1109003067
 C          0.6054403079        3.0631061037        0.2917326964
 C          0.0786210684        0.5853132871       -0.0452102506
 C          1.3951178132        0.0620347844       -0.0661769392
 C          1.7066417861       -1.2810011211       -0.2398779130
 C          3.0683082657       -1.5622766457       -0.2250753462
 C          3.8827187948       -0.4538093585       -0.0378360674
 C          5.3053231534       -0.4989665614        0.0156776811
 C          6.1958208763        0.5497906059        0.1971578351
 C          5.8063423037        1.9743746644        0.3746703788
 C          7.5475543274        0.1267378974        0.1985248604
 C          7.7155352147       -1.2095672610        0.0229254398
 S          6.2007059745       -1.9896064550       -0.1507849822
 S          2.8792681178        0.9581463054        0.1159759103
 S         -1.3271065986       -0.4256822567       -0.2249537026
 S         -4.6885048220       -0.7366677356       -0.3863898535
 H         -7.3505621796       -2.8694667141        2.0842970760
 H         -6.1443479294       -2.1984421535        1.1401801692
 H         -7.2093251035       -3.2828701002        0.4722754487
 H         -8.0197241413       -0.6185533613        1.5603001604
 H         -9.0397469165       -1.7208531668        0.6618865772
 H         -8.3011434590       -0.0014662600       -0.9084960315
 H         -7.4326258096       -1.4601176104       -1.3200879412
 H         -6.9465392088        2.0437598786       -0.1752011548
 H         -4.4944470148        2.8302015647        0.0382614255
 H         -2.1851016746        3.0398994411        0.1777143409
 H          0.0600995769        3.9985767336        0.4137123979
 H          1.2616240527        3.1684309194       -0.5721996672
 H          1.2268480038        2.9211122194        1.1759092729
 H          0.9481903365       -2.0355946499       -0.3761135891
 H          3.4678780225       -2.5560763449       -0.3486050820
 H          6.6830537268        2.6121923392        0.4863366192
 H          5.1872507815        2.0978761606        1.2633485035
 H          5.2414783704        2.3306418661       -0.4863951816
 H          8.3703058933        0.8131592452        0.3286545317
 H          8.6571460524       -1.7243597926       -0.0056524036
          45
        -68.49537825
 N         -7.9563526808        1.4597400593        1.2540209400
 C         -8.3833345372        0.0839214810        0.8722772658
 C         -7.7606338902       -0.3603251808       -0.4507302561
 C         -6.2926345338       -0.5860611006       -0.3517145820
 C         -5.6823456897       -1.8015591607       -0.2333589396
 C         -4.2776552410       -1.7376652088       -0.1653832918
 C         -3.7718575695       -0.4590827233       -0.2283197591
 C         -2.3974803943       -0.1032095457       -0.1967016794
 C         -1.8881276606        1.1831006949       -0.2736928245
 C         -0.4932224870        1.2685420612       -0.2275239575
 C          0.2280296352        2.5670988149       -0.3003494367
 C          0.1282422234        0.0201309138       -0.1068103359
 C          1.5135532656       -0.2674192126       -0.0311883110
 C          2.0486478852       -1.5441567251        0.0897916023
 C          3.4376081188       -1.5827179740        0.1434636935
 C          4.0511828604       -0.3398462831        0.0666876193
 C          5.4600370790       -0.1330422447        0.0988537245
 C          6.1582813516        1.0641323036        0.0279452486
 C          5.5316499303        2.4069976015       -0.1009372548
 C          7.5618548302        0.8840530382        0.0886499038
 C          7.9551845817       -0.4108104886        0.2044451981
 S          6.5960266229       -1.4523480761        0.2419737186
 S          2.8225368804        0.8828650469       -0.0727378052
 S         -1.0851020387       -1.2277915662       -0.0574917953
 S         -5.0957090726        0.6721034814       -0.3556821996
 H         -8.3401498524        2.1614294574        0.6034102720
 H         -6.9300496553        1.5282245653        1.2034621583
 H         -8.2547414226        1.7167409796        2.2114532634
 H         -9.4782571832        0.0483939299        0.8191060615
 H         -8.0982165037       -0.6209638921        1.6618261348
 H         -7.9518770379        0.3975258840       -1.2173092526
 H         -8.2395108410       -1.2770130509       -0.8123783403
 H         -6.2316754040       -2.7296418286       -0.2029769851
 H         -3.6466528323       -2.6080532216       -0.0807458034
 H         -2.5236486690        2.0485848355       -0.3671669971
 H         -0.4667763086        3.3993189421       -0.4107212073
 H          0.9075351198        2.5842042069       -1.1524910019
 H          0.8121051533        2.7358833712        0.6044108066
 H          1.4303162841       -2.4266002573        0.1364715525
 H          4.0002270149       -2.4978591627        0.2360176143
 H          4.8653367780        2.6049288005        0.7386460177
 H          4.9506426445        2.4754493271       -1.0208269463
 H          6.2855182148        3.1937184263       -0.1222033351
 H          8.2550439380        1.7102793610        0.0451799507
 H          8.9710817115       -0.7525185286        0.2649815107
