  45

 N          3.4254215799        0.9118160835        3.3987172127
 C          2.6910604973        1.6161688289        2.3111957888
 C          3.6157624745        2.6670361502        1.6871723305
 C          4.8154676974        2.0242348851        1.0753273034
 C          5.0609189703        1.7252704190       -0.2277259800
 C          6.2661979193        1.0303309626       -0.4348495356
 C          6.9670402406        0.7669440714        0.7140903976
 C          8.1959474115        0.0869707317        0.8865150020
 C          8.8895683251       -0.1592760633        2.0514080682
 C         10.0821180154       -0.8670970696        1.8748984698
 C         10.9842614343       -1.2367697503        3.0014521455
 C         10.3178186278       -1.1770354893        0.5411852157
 C         11.3949658427       -1.8785760709       -0.0575118198
 C         11.5707460786       -2.1208306689       -1.4060506344
 C         12.7187212318       -2.8505260668       -1.7037914557
 C         13.4579010385       -3.1917316744       -0.5887758608
 C         14.6663495093       -3.9431069161       -0.4861423432
 C         15.5735095525       -4.3093103328       -1.4625415335
 C         15.4975432599       -3.9505680628       -2.9083260353
 C         16.6395684914       -5.0674902585       -0.9302724165
 C         16.5509266311       -5.2713025799        0.4097975311
 S         15.1581465327       -4.5380881940        1.0816563855
 S         12.7044454647       -2.5819012819        0.8533839244
 S          9.0427033028       -0.5768026599       -0.4845826255
 S          6.1296607380        1.4394027212        2.0980444334
 H          2.9572785791        0.0500466821        3.6929768713
 H          3.5413468737        1.5274110304        4.2110974533
 H          4.3963282104        0.7030513833        3.0289266575
 H          1.7902274735        2.0773969530        2.7160563983
 H          2.4085277291        0.8820300454        1.5556331626
 H          3.9129327376        3.3934206421        2.4464452882
 H          3.0635729406        3.1987066233        0.9124758045
 H          4.3976138236        2.0002630242       -1.0280246996
 H          6.6252838752        0.7250042476       -1.4001614703
 H          8.5400216448        0.1744758015        3.0146843034
 H         10.5884591769       -0.8539249828        3.9384076221
 H         11.9813124556       -0.8259144461        2.8480609233
 H         11.0831021436       -2.3191339319        3.0777609625
 H         10.8743422256       -1.7755498456       -2.1507069955
 H         12.9815194279       -3.1395424422       -2.7024285116
 H         15.2634555836       -2.8949924127       -3.0351671182
 H         14.7299894271       -4.5387934043       -3.4118258042
 H         16.4503045573       -4.1575612661       -3.3886117247
 H         17.4459340087       -5.4461206110       -1.5327240074
 H         17.2234562387       -5.8096248045        1.0471509162
