27

N          0.95769        2.03958        0.22671
C          2.43939        2.07674        0.28598
C          3.01623        1.13909       -0.76803
C          4.55979        1.12409       -0.78365
C          5.06588        0.17938       -1.89102
C          6.58890        0.06355       -1.90243
C          7.12849       -0.35588       -0.54027
C          6.66725        0.60297        0.54843
C          5.14698        0.72562        0.58062
H          0.54650        2.67146        0.92504
H          0.59534        1.09589        0.41736
H          0.60565        2.32980       -0.69554
H          2.70207        1.77769        1.30306
H          2.73963        3.11533        0.11588
H          2.65356        1.44335       -1.75935
H          2.64023        0.12134       -0.59898
H          4.90815        2.13856       -1.02230
H          4.72624        0.53686       -2.87025
H          4.63382       -0.82019       -1.75194
H          7.02748        1.02766       -2.18886
H          6.89809       -0.66553       -2.66012
H          8.22329       -0.38542       -0.56646
H          6.78533       -1.37088       -0.30481
H          7.10875        1.59259        0.37783
H          7.02670        0.25696        1.52406
H          4.88569        1.47097        1.33976
H          4.71299       -0.22865        0.90483
