27
 xtb: 6.5.1 (fef0646)
N           -3.78049123910594        0.24510800230273        0.90747168830373
C           -3.26137134936404        0.02000127641756       -0.47764098795105
C           -1.72696982657283       -0.05183256747627       -0.58331007466535
C           -1.11658981437590       -1.25100178295803        0.18251429074766
C            0.40622171725692       -1.33884862689241       -0.03584367568273
C            1.10770319497424       -0.02971474338021        0.38032665648892
C            2.59901964187542       -0.05133101208206        0.12310485597839
O            2.98485482343775        0.15798113816400       -1.14994896578105
O            3.37654468686754       -0.20130286596374        1.05652815907103
C            0.48638883763581        1.18426237455317       -0.35169111928971
C           -1.03570679705355        1.25871380130614       -0.13895460629509
H           -3.46240415751120        1.11331736222880        1.27815506863104
H           -3.50897030691969       -0.52832699854357        1.52903673120462
H           -4.81794475175391        0.25081927260324        0.88312191656103
H           -3.62935968246791        0.78974916746467       -1.14430607988418
H           -3.67425902378257       -0.93760809205910       -0.87834361313767
H           -1.45147586633162       -0.22233557446818       -1.63434285851321
H           -1.58835530594582       -2.17417551341963       -0.05570945533253
H           -1.31326218879293       -1.08766092353251        1.28535817923136
H            0.64395095790713       -1.53167104390322       -1.03649850041033
H            0.85398021690360       -2.13359261270630        0.58871637914729
H            0.99098642172971        0.18240202474173        1.47226786311343
H            3.94384369304188        0.15194412004486       -1.21414114953930
H            0.71434211953022        1.10670639305139       -1.42845014476236
H            0.95820309925109        2.14616654893039       -0.05031256263624
H           -1.48336017079883        2.11227933433463       -0.70400754024680
H           -1.25447941871390        1.45884216545907        0.90089314858116
