 xtb: 6.5.1 (fef0646)
          01242316583D

 27 27  0     0  0            999 V2000
   -3.7956    0.2140    0.8815 N   0  0  0  0  0  0  0  0  0  0  0  0
   -3.2525   -0.0133   -0.4918 C   0  0  0  0  0  0  0  0  0  0  0  0
   -1.7163   -0.0582   -0.5755 C   0  0  0  0  0  0  0  0  0  0  0  0
   -1.0994   -1.2211    0.2362 C   0  0  0  0  0  0  0  0  0  0  0  0
    0.4245   -1.2946    0.0315 C   0  0  0  0  0  0  0  0  0  0  0  0
    1.1148    0.0384    0.3960 C   0  0  0  0  0  0  0  0  0  0  0  0
    2.5971   -0.0497    0.1156 C   0  0  0  0  0  0  0  0  0  0  0  0
    2.9865    0.2271   -1.1424 O   0  0  0  0  0  0  0  0  0  0  0  0
    3.3536   -0.3814    0.9974 O   0  0  0  0  0  0  0  0  0  0  0  0
    0.4773    1.2197   -0.3675 C   0  0  0  0  0  0  0  0  0  0  0  0
   -1.0481    1.2743   -0.1632 C   0  0  0  0  0  0  0  0  0  0  0  0
   -3.4728    1.1079    1.2697 H   0  0  0  0  0  0  0  0  0  0  0  0
   -3.5115   -0.5332    1.5254 H   0  0  0  0  0  0  0  0  0  0  0  0
   -4.8221    0.2367    0.8719 H   0  0  0  0  0  0  0  0  0  0  0  0
   -3.6288    0.7755   -1.1527 H   0  0  0  0  0  0  0  0  0  0  0  0
   -3.6648   -0.9511   -0.8807 H   0  0  0  0  0  0  0  0  0  0  0  0
   -1.4435   -0.2324   -1.6295 H   0  0  0  0  0  0  0  0  0  0  0  0
   -1.5785   -2.1703   -0.0319 H   0  0  0  0  0  0  0  0  0  0  0  0
   -1.3113   -1.0690    1.2988 H   0  0  0  0  0  0  0  0  0  0  0  0
    0.6513   -1.5299   -1.0142 H   0  0  0  0  0  0  0  0  0  0  0  0
    0.8624   -2.1123    0.6177 H   0  0  0  0  0  0  0  0  0  0  0  0
    0.9969    0.2114    1.4756 H   0  0  0  0  0  0  0  0  0  0  0  0
    3.9397    0.1322   -1.2229 H   0  0  0  0  0  0  0  0  0  0  0  0
    0.7132    1.1108   -1.4320 H   0  0  0  0  0  0  0  0  0  0  0  0
    0.9505    2.1610   -0.0613 H   0  0  0  0  0  0  0  0  0  0  0  0
   -1.4901    2.1106   -0.7180 H   0  0  0  0  0  0  0  0  0  0  0  0
   -1.2609    1.4704    0.8920 H   0  0  0  0  0  0  0  0  0  0  0  0
  1  2  1  0  0  0  0
  2  3  1  0  0  0  0
  3  4  1  0  0  0  0
  4  5  1  0  0  0  0
  5  6  1  0  0  0  0
  6  7  1  0  0  0  0
  7  8  1  0  0  0  0
  7  9  2  0  0  0  0
  6 10  1  0  0  0  0
  3 11  1  0  0  0  0
 10 11  1  0  0  0  0
  1 12  1  0  0  0  0
  1 13  1  0  0  0  0
  1 14  1  0  0  0  0
  2 15  1  0  0  0  0
  2 16  1  0  0  0  0
  3 17  1  0  0  0  0
  4 18  1  0  0  0  0
  4 19  1  0  0  0  0
  5 20  1  0  0  0  0
  5 21  1  0  0  0  0
  6 22  1  0  0  0  0
  8 23  1  0  0  0  0
 10 24  1  0  0  0  0
 10 25  1  0  0  0  0
 11 26  1  0  0  0  0
 11 27  1  0  0  0  0
M  CHG  1   1   1
M  END
