 xtb: 6.5.1 (fef0646)
          01242314563D

 47 50  0     0  0            999 V2000
    5.3505   -0.3454    3.8438 N   0  0  0  0  0  0  0  0  0  0  0  0
    4.1964   -0.2173    2.9257 C   0  0  0  0  0  0  0  0  0  0  0  0
    3.9395    1.2415    2.5705 C   0  0  0  0  0  0  0  0  0  0  0  0
    5.0144    1.8556    1.7332 C   0  0  0  0  0  0  0  0  0  0  0  0
    5.1111    3.1556    1.3257 C   0  0  0  0  0  0  0  0  0  0  0  0
    6.2314    3.4083    0.5166 C   0  0  0  0  0  0  0  0  0  0  0  0
    7.0116    2.2995    0.2981 C   0  0  0  0  0  0  0  0  0  0  0  0
    8.2055    2.1730   -0.4618 C   0  0  0  0  0  0  0  0  0  0  0  0
    8.9641    1.0436   -0.6645 C   0  0  0  0  0  0  0  0  0  0  0  0
   10.0875    1.2466   -1.4748 C   0  0  0  0  0  0  0  0  0  0  0  0
   11.0379    0.1561   -1.8183 C   0  0  0  0  0  0  0  0  0  0  0  0
   10.1938    2.5654   -1.9032 C   0  0  0  0  0  0  0  0  0  0  0  0
   11.1812    3.1547   -2.7300 C   0  0  0  0  0  0  0  0  0  0  0  0
   11.2803    4.4773   -3.1476 C   0  0  0  0  0  0  0  0  0  0  0  0
   10.3964    5.5074   -2.8176 C   0  0  0  0  0  0  0  0  0  0  0  0
    9.6899    6.3805   -2.5625 N   0  0  0  0  0  0  0  0  0  0  0  0
   12.4123    4.7242   -3.9871 C   0  0  0  0  0  0  0  0  0  0  0  0
   12.6422    6.0046   -4.5013 C   0  0  0  0  0  0  0  0  0  0  0  0
   12.7677    7.0776   -4.8982 N   0  0  0  0  0  0  0  0  0  0  0  0
   13.1853    3.5963   -4.2178 C   0  0  0  0  0  0  0  0  0  0  0  0
   14.3752    3.4805   -4.9870 C   0  0  0  0  0  0  0  0  0  0  0  0
   15.1116    2.3439   -5.2808 C   0  0  0  0  0  0  0  0  0  0  0  0
   14.7846    0.9601   -4.8411 C   0  0  0  0  0  0  0  0  0  0  0  0
   16.2403    2.6444   -6.0728 C   0  0  0  0  0  0  0  0  0  0  0  0
   16.3610    3.9639   -6.3701 C   0  0  0  0  0  0  0  0  0  0  0  0
   15.0960    4.9106   -5.6991 S   0  0  0  0  0  0  0  0  0  0  0  0
   12.5008    2.2311   -3.3911 S   0  0  0  0  0  0  0  0  0  0  0  0
    8.8817    3.5515   -1.2885 S   0  0  0  0  0  0  0  0  0  0  0  0
    6.3385    0.9230    1.0982 S   0  0  0  0  0  0  0  0  0  0  0  0
    5.5215   -1.3304    4.0715 H   0  0  0  0  0  0  0  0  0  0  0  0
    5.1837    0.1750    4.7117 H   0  0  0  0  0  0  0  0  0  0  0  0
    6.1892    0.0343    3.3854 H   0  0  0  0  0  0  0  0  0  0  0  0
    3.3095   -0.6305    3.4042 H   0  0  0  0  0  0  0  0  0  0  0  0
    4.4068   -0.7790    2.0158 H   0  0  0  0  0  0  0  0  0  0  0  0
    3.8068    1.8436    3.4719 H   0  0  0  0  0  0  0  0  0  0  0  0
    3.0003    1.3033    2.0161 H   0  0  0  0  0  0  0  0  0  0  0  0
    4.4008    3.9173    1.5915 H   0  0  0  0  0  0  0  0  0  0  0  0
    6.4746    4.3687    0.0949 H   0  0  0  0  0  0  0  0  0  0  0  0
    8.7142    0.0871   -0.2408 H   0  0  0  0  0  0  0  0  0  0  0  0
   10.7242   -0.7696   -1.3467 H   0  0  0  0  0  0  0  0  0  0  0  0
   12.0438    0.4022   -1.4816 H   0  0  0  0  0  0  0  0  0  0  0  0
   11.0780    0.0069   -2.8964 H   0  0  0  0  0  0  0  0  0  0  0  0
   13.7836    0.6773   -5.1639 H   0  0  0  0  0  0  0  0  0  0  0  0
   14.8231    0.8816   -3.7554 H   0  0  0  0  0  0  0  0  0  0  0  0
   15.5001    0.2635   -5.2665 H   0  0  0  0  0  0  0  0  0  0  0  0
   16.9377    1.8987   -6.4075 H   0  0  0  0  0  0  0  0  0  0  0  0
   17.1195    4.4524   -6.9480 H   0  0  0  0  0  0  0  0  0  0  0  0
  1  2  1  0  0  0  0
  2  3  1  0  0  0  0
  3  4  1  0  0  0  0
  4  5  2  0  0  0  0
  5  6  4  0  0  0  0
  6  7  4  0  0  0  0
  7  8  1  0  0  0  0
  8  9  4  0  0  0  0
  9 10  4  0  0  0  0
 10 11  1  0  0  0  0
 10 12  4  0  0  0  0
 12 13  4  0  0  0  0
 13 14  4  0  0  0  0
 14 15  1  0  0  0  0
 15 16  3  0  0  0  0
 14 17  1  0  0  0  0
 17 18  1  0  0  0  0
 18 19  3  0  0  0  0
 17 20  4  0  0  0  0
 20 21  1  0  0  0  0
 21 22  4  0  0  0  0
 22 23  1  0  0  0  0
 22 24  4  0  0  0  0
 24 25  2  0  0  0  0
 21 26  1  0  0  0  0
 25 26  1  0  0  0  0
 13 27  1  0  0  0  0
 20 27  1  0  0  0  0
  8 28  1  0  0  0  0
 12 28  1  0  0  0  0
  4 29  1  0  0  0  0
  7 29  1  0  0  0  0
  1 30  1  0  0  0  0
  1 31  1  0  0  0  0
  1 32  1  0  0  0  0
  2 33  1  0  0  0  0
  2 34  1  0  0  0  0
  3 35  1  0  0  0  0
  3 36  1  0  0  0  0
  5 37  1  0  0  0  0
  6 38  1  0  0  0  0
  9 39  1  0  0  0  0
 11 40  1  0  0  0  0
 11 41  1  0  0  0  0
 11 42  1  0  0  0  0
 23 43  1  0  0  0  0
 23 44  1  0  0  0  0
 23 45  1  0  0  0  0
 24 46  1  0  0  0  0
 25 47  1  0  0  0  0
M  CHG  1   1   1
M  END
