21
 xtb: 6.5.1 (fef0646)
N           -3.72672045443703       -1.43028176193140        0.43945919401774
C           -3.25967176706556       -0.42021061052754       -0.57158467156206
C           -2.32035613033554        0.66614637233774        0.00379219817977
C           -0.84813309931764        0.37548831923550       -0.02663746665196
C            0.03553287172040        1.45153536675917       -0.09425604115592
F           -0.44025524757761        2.69191504374213       -0.18898146156300
C            1.41329858629895        1.25150359139337       -0.07564789866033
F            2.23707392078960        2.29279398177159       -0.15534269828076
C            1.92530801891347       -0.03400710873374        0.02959984997655
F            3.24318039538065       -0.22977538769490        0.05458931173211
C            1.05681582608457       -1.11338368254940        0.10623705219784
F            1.54155736306098       -2.34901185270259        0.20371628076387
C           -0.32155203704412       -0.90826290970420        0.07700130154195
F           -1.11737463162466       -1.97406603406298        0.09991538941886
H           -4.18510769039238       -0.97090150211263        1.21560263095145
H           -2.92425204513337       -1.99241602030763        0.76929736806612
H           -4.39976271618464       -2.08814439726423       -0.02088457083692
H           -4.12171115205199        0.03343481198082       -1.05436091250265
H           -2.70235594551068       -0.95280224889146       -1.39388698073431
H           -2.61472047879203        0.86521708710737        1.05551596135931
H           -2.47878419050024        1.61617223366886       -0.51939186693167
