25
 xtb: 6.5.1 (fef0646)
N            3.78670376128021       -0.03963138439269        0.28268195442547
C            2.32474655054693       -0.11219173072655        0.58407525925824
C            1.46241750800787        0.18677679641157       -0.64137738268590
C           -0.00804106114130        0.07358774677499       -0.36217526837288
C           -0.60903531557504       -1.10773094966411       -0.46463790633133
C           -2.05799255113234       -1.35176500119288       -0.18364611688349
C           -2.87947157389757       -0.05405669752681       -0.10392062978278
C           -2.12640461127191        1.02710231346761        0.68257307178680
C           -0.74987263675919        1.31442047113781        0.05896611631595
H            4.00723736541944        0.90271682020150       -0.08720552790482
H            4.08302825309718       -0.73926720207901       -0.41098850000256
H            4.34788902238323       -0.17824886148445        1.14401180036871
H            2.06309430321538        0.49021638546435        1.41502047315589
H            2.09847333689436       -1.17588810942779        0.89630418992358
H            1.72644287155588       -0.42835077056388       -1.48733380544347
H            1.68729383536848        1.22752565147296       -0.95576704655296
H            0.00198352595121       -1.94806957069151       -0.73838767398046
H           -2.13591504408032       -1.88363216016082        0.79573922244982
H           -2.45760368736113       -2.03581573922390       -0.91696235738125
H           -3.86236761458247       -0.25205012156072        0.34517235918310
H           -3.08281580606344        0.28418984436152       -1.12456513972659
H           -2.00020364010831        0.72150208842739        1.70516040930793
H           -2.74012637982467        1.95273010677043        0.71011626441738
H           -0.14499755635230        1.91129652488277        0.72632242894369
H           -0.88880384828591        1.95188475348985       -0.85388687606109
