25
 xtb: 6.5.1 (fef0646)
N            3.78886880726346       -0.03963085574343        0.28216368003335
C            2.32615651628504       -0.10208152564406        0.58643475908712
C            1.46181113579667        0.18115546989495       -0.64290609855968
C           -0.00823417996817        0.07111969143838       -0.36084535089187
C           -0.61143020109765       -1.10886314122488       -0.46771421084594
C           -2.06014732187665       -1.35157350221021       -0.18488283619425
C           -2.87988841866526       -0.05285359291837       -0.10582190382969
C           -2.12669048745313        1.02670055416410        0.68290285356113
C           -0.74746613436520        1.31228179659768        0.06401911746685
H            4.01026793576718        0.90320677407109       -0.08395818603050
H            4.08116337055526       -0.73326663696820       -0.41661485525796
H            4.34716399379005       -0.18696047158318        1.14256281231746
H            2.06470285137250        0.49734621764110        1.41303666365595
H            2.09807426301140       -1.17147148268734        0.90173937281810
H            1.72513116421648       -0.43361478118873       -1.48540032884626
H            1.68743271274978        1.22455669096079       -0.96066514095773
H            0.00078310051753       -1.94831550717474       -0.74047439029664
H           -2.13635380463553       -1.88309510687424        0.79565343401579
H           -2.45863842089034       -2.03601901675548       -0.91685749734487
H           -3.86278896783141       -0.25139560095930        0.34410389384676
H           -3.08227557461064        0.28465433923848       -1.12521064820253
H           -2.00137856632281        0.72125348887856        1.70536114638196
H           -2.73978325262063        1.95292566584676        0.70970027026327
H           -0.14433913553977        1.90941514658787        0.72895461173981
H           -0.88690701151524        1.95240579255386       -0.85183723865057
