21

N          2.85370       -2.71394       -1.37345
C          2.35202       -1.44375       -1.96231
C          2.94329       -0.23845       -1.22941
C          4.45093       -0.17506       -1.29834
C          5.10708       -0.06686       -2.53319
C          6.49922        0.01356       -2.59105
C          7.24842       -0.00311       -1.41788
C          6.60898       -0.10006       -0.18486
C          5.21619       -0.18604       -0.12285
H          2.47645       -3.53385       -1.86454
H          2.60782       -2.80019       -0.37936
H          3.88313       -2.76085       -1.43705
H          1.26192       -1.46288       -1.87044
H          2.62071       -1.46432       -3.02258
H          2.61706       -0.26013       -0.18223
H          2.53795        0.68588       -1.65837
H          4.55114       -0.00818       -3.46754
H          7.00329        0.11612       -3.55040
H          8.33313        0.08677       -1.46312
H          7.19692       -0.08499        0.73012
H          4.74489       -0.22790        0.85698
