 xtb: 6.5.1 (fef0646)
          01242310103D

 27 27  0     0  0            999 V2000
   -2.9890    0.8688    0.5119 N   0  0  0  0  0  0  0  0  0  0  0  0
   -2.3465   -0.4778    0.5522 C   0  0  0  0  0  0  0  0  0  0  0  0
   -1.5428   -0.8047   -0.7126 C   0  0  0  0  0  0  0  0  0  0  0  0
   -0.0408   -0.4408   -0.6668 C   0  0  0  0  0  0  0  0  0  0  0  0
    0.7607   -1.2957    0.3469 C   0  0  0  0  0  0  0  0  0  0  0  0
    2.2685   -0.9953    0.2607 C   0  0  0  0  0  0  0  0  0  0  0  0
    2.5533    0.5034    0.4698 C   0  0  0  0  0  0  0  0  0  0  0  0
    1.7386    1.3733   -0.5047 C   0  0  0  0  0  0  0  0  0  0  0  0
    0.2344    1.0592   -0.4098 C   0  0  0  0  0  0  0  0  0  0  0  0
   -3.6456    0.9405   -0.2790 H   0  0  0  0  0  0  0  0  0  0  0  0
   -2.2997    1.6264    0.4069 H   0  0  0  0  0  0  0  0  0  0  0  0
   -3.5263    1.0597    1.3713 H   0  0  0  0  0  0  0  0  0  0  0  0
   -3.1398   -1.2235    0.6970 H   0  0  0  0  0  0  0  0  0  0  0  0
   -1.7126   -0.5600    1.4417 H   0  0  0  0  0  0  0  0  0  0  0  0
   -2.0135   -0.2989   -1.5630 H   0  0  0  0  0  0  0  0  0  0  0  0
   -1.6275   -1.8756   -0.9356 H   0  0  0  0  0  0  0  0  0  0  0  0
    0.3831   -0.6664   -1.6599 H   0  0  0  0  0  0  0  0  0  0  0  0
    0.5609   -2.3624    0.1873 H   0  0  0  0  0  0  0  0  0  0  0  0
    0.4084   -1.0797    1.3605 H   0  0  0  0  0  0  0  0  0  0  0  0
    2.6469   -1.3046   -0.7208 H   0  0  0  0  0  0  0  0  0  0  0  0
    2.8247   -1.5998    0.9898 H   0  0  0  0  0  0  0  0  0  0  0  0
    3.6271    0.7097    0.3649 H   0  0  0  0  0  0  0  0  0  0  0  0
    2.3044    0.7809    1.5010 H   0  0  0  0  0  0  0  0  0  0  0  0
    2.0850    1.1940   -1.5295 H   0  0  0  0  0  0  0  0  0  0  0  0
    1.9233    2.4398   -0.3183 H   0  0  0  0  0  0  0  0  0  0  0  0
   -0.3435    1.6782   -1.1066 H   0  0  0  0  0  0  0  0  0  0  0  0
   -0.1218    1.3187    0.5923 H   0  0  0  0  0  0  0  0  0  0  0  0
  1  2  1  0  0  0  0
  2  3  1  0  0  0  0
  3  4  1  0  0  0  0
  4  5  1  0  0  0  0
  5  6  1  0  0  0  0
  6  7  1  0  0  0  0
  7  8  1  0  0  0  0
  4  9  1  0  0  0  0
  8  9  1  0  0  0  0
  1 10  1  0  0  0  0
  1 11  1  0  0  0  0
  1 12  1  0  0  0  0
  2 13  1  0  0  0  0
  2 14  1  0  0  0  0
  3 15  1  0  0  0  0
  3 16  1  0  0  0  0
  4 17  1  0  0  0  0
  5 18  1  0  0  0  0
  5 19  1  0  0  0  0
  6 20  1  0  0  0  0
  6 21  1  0  0  0  0
  7 22  1  0  0  0  0
  7 23  1  0  0  0  0
  8 24  1  0  0  0  0
  8 25  1  0  0  0  0
  9 26  1  0  0  0  0
  9 27  1  0  0  0  0
M  CHG  1   1   1
M  END
