17
 xtb: 6.5.1 (fef0646)
N           -3.87730123760414       -0.78587110425841       -0.46147175086350
C           -3.54450306266590        0.19316257284033        0.61735218342604
C           -2.04280737119159        0.41442610751462        0.80558694783095
C           -1.38778037481563        1.15249856235084       -0.37047418243573
C            0.07839613957540        1.48117449520743       -0.14711029930077
I            1.30743260009416       -0.24780921468397       -0.02975687166528
H           -3.43599353551453       -1.72670181629836       -0.21489970245793
H           -3.43790522407368       -0.51996236431015       -1.36175837195134
H           -4.84857120813801       -0.93225787814036       -0.58746738152239
H           -4.00009788567718       -0.14707824573714        1.54134937863934
H           -4.04584593473352        1.13793337398788        0.35644531886226
H           -1.54302082254181       -0.50320588328361        0.99794235136718
H           -1.89752742807228        1.04040786015164        1.72396358289352
H           -1.92849753445107        2.10096684812951       -0.57221543890531
H           -1.47541783173568        0.56813632434938       -1.27557955362500
H            0.23660891318010        2.03305111697596        0.80638853671613
H            0.51080973847848        2.09202858836942       -0.93415378411193
