 xtb: 6.5.1 (fef0646)
          02032321083D

 17 16  0     0  0            999 V2000
   -3.8198   -0.8212   -0.4590 N   0  0  0  0  0  0  0  0  0  0  0  0
   -3.5425    0.1969    0.5992 C   0  0  0  0  0  0  0  0  0  0  0  0
   -2.0527    0.4640    0.8150 C   0  0  0  0  0  0  0  0  0  0  0  0
   -1.3758    1.1798   -0.3616 C   0  0  0  0  0  0  0  0  0  0  0  0
    0.0915    1.4922   -0.1198 C   0  0  0  0  0  0  0  0  0  0  0  0
    1.2777   -0.2658   -0.0417 I   0  0  0  0  0  0  0  0  0  0  0  0
   -3.3480   -1.7047   -0.2429 H   0  0  0  0  0  0  0  0  0  0  0  0
   -3.4930   -0.5030   -1.3769 H   0  0  0  0  0  0  0  0  0  0  0  0
   -4.8241   -1.0102   -0.5363 H   0  0  0  0  0  0  0  0  0  0  0  0
   -3.9995   -0.1446    1.5366 H   0  0  0  0  0  0  0  0  0  0  0  0
   -4.0536    1.1322    0.3434 H   0  0  0  0  0  0  0  0  0  0  0  0
   -1.5416   -0.4840    1.0135 H   0  0  0  0  0  0  0  0  0  0  0  0
   -1.9114    1.0635    1.7226 H   0  0  0  0  0  0  0  0  0  0  0  0
   -1.9215    2.1095   -0.5753 H   0  0  0  0  0  0  0  0  0  0  0  0
   -1.4707    0.5725   -1.2706 H   0  0  0  0  0  0  0  0  0  0  0  0
    0.2400    2.0305    0.8177 H   0  0  0  0  0  0  0  0  0  0  0  0
    0.5183    2.0984   -0.9218 H   0  0  0  0  0  0  0  0  0  0  0  0
  1  2  1  0  0  0  0
  2  3  1  0  0  0  0
  3  4  1  0  0  0  0
  4  5  1  0  0  0  0
  5  6  1  0  0  0  0
  1  7  1  0  0  0  0
  1  8  1  0  0  0  0
  1  9  1  0  0  0  0
  2 10  1  0  0  0  0
  2 11  1  0  0  0  0
  3 12  1  0  0  0  0
  3 13  1  0  0  0  0
  4 14  1  0  0  0  0
  4 15  1  0  0  0  0
  5 16  1  0  0  0  0
  5 17  1  0  0  0  0
M  CHG  1   1   1
M  END
