 xtb: 6.5.1 (fef0646)
          02032320273D

 15 14  0     0  0            999 V2000
   -2.3058   -0.2991   -0.0420 N   0  0  0  0  0  0  0  0  0  0  0  0
   -0.9357   -0.0453    0.4987 C   0  0  0  0  0  0  0  0  0  0  0  0
    0.0781    0.3178   -0.5836 C   0  0  0  0  0  0  0  0  0  0  0  0
    1.4490    0.5503   -0.0428 C   0  0  0  0  0  0  0  0  0  0  0  0
    2.3123   -0.4205    0.1731 C   0  0  0  0  0  0  0  0  0  0  0  0
   -2.9593   -0.5459    0.7075 H   0  0  0  0  0  0  0  0  0  0  0  0
   -2.2906   -1.0691   -0.7175 H   0  0  0  0  0  0  0  0  0  0  0  0
   -2.6667    0.5331   -0.5179 H   0  0  0  0  0  0  0  0  0  0  0  0
   -0.5911   -0.9329    1.0419 H   0  0  0  0  0  0  0  0  0  0  0  0
   -0.9823    0.7581    1.2434 H   0  0  0  0  0  0  0  0  0  0  0  0
   -0.2646    1.2064   -1.1259 H   0  0  0  0  0  0  0  0  0  0  0  0
    0.1172   -0.4779   -1.3348 H   0  0  0  0  0  0  0  0  0  0  0  0
    1.7198    1.5610    0.2229 H   0  0  0  0  0  0  0  0  0  0  0  0
    2.0706   -1.4390   -0.0584 H   0  0  0  0  0  0  0  0  0  0  0  0
    3.2864   -0.2303    0.5808 H   0  0  0  0  0  0  0  0  0  0  0  0
  1  2  1  0  0  0  0
  2  3  1  0  0  0  0
  3  4  1  0  0  0  0
  4  5  2  0  0  0  0
  1  6  1  0  0  0  0
  1  7  1  0  0  0  0
  1  8  1  0  0  0  0
  2  9  1  0  0  0  0
  2 10  1  0  0  0  0
  3 11  1  0  0  0  0
  3 12  1  0  0  0  0
  4 13  1  0  0  0  0
  5 14  1  0  0  0  0
  5 15  1  0  0  0  0
M  CHG  1   1   1
M  END
