19
 xtb: 6.5.1 (fef0646)
N            0.07599343281180       -1.20814048213150       -1.11323211467187
C           -0.99819425733086       -1.24771657734094       -0.07941402361994
C           -1.87536299472709        0.00334200115642       -0.08438130395956
C           -1.11330779513626        1.25143840745855        0.19529738902994
C           -1.02317654222622        2.32632358624744       -0.62910154066638
C           -0.21538395731666        3.38058139697126       -0.10891882875600
C            0.30210624902025        3.10378843789108        1.10837952056042
S           -0.17450688814049        1.51899766824505        1.63365826564264
Cl           1.98683381591071       -3.97266101745755       -1.05191587842091
H            0.64605077797290       -2.01645170051502       -1.13964075851948
H            0.65101338096271       -0.35288531892204       -0.98594500802544
H           -0.37955967506561       -1.07620408961174       -2.06697339575315
H           -0.52500852956598       -1.36354692991274        0.90020766158216
H           -1.61500411739313       -2.13995047406809       -0.22435056176989
H           -2.67368570246560       -0.09262373705872        0.70194980821721
H           -2.40969226400395        0.10269924801736       -1.01463313951867
H           -1.46433804484062        2.33214743529044       -1.61171679526133
H            0.01649483367544        4.26825114610443       -0.67723445865549
H            0.93641962498328        3.76406135088957        1.67015759416826
