26
 xtb: 6.5.1 (fef0646)
N           -1.47846209513979        0.63061186989536       -0.60951033370935
C           -1.02932936489731        1.18440033983630        0.70166269528134
C            0.40831816966134        1.70441127709608        0.69145301960347
C            1.43025262580081        0.64264314100860        0.39959386721635
C            1.85624103144082        0.45160708437023       -0.84703190718977
C            2.83398383126861       -0.60602635149825       -1.25893011535987
C            3.57718765689290       -1.23620032658078       -0.06918303310799
C            2.61987342556118       -1.49784184254121        1.10002526729767
C            1.92403372822275       -0.20071671239292        1.54756751156890
Cl          -4.46604668431802       -0.40272605056540       -0.60055403591915
H           -1.30551850296654        1.37866898635846       -1.36565403031246
H           -2.38844739375693        0.32957555319689       -0.63263067660899
H           -0.80485524977352       -0.13550147174896       -0.89650887549135
H           -1.11495348147573        0.42734227751420        1.46119051183602
H           -1.68937878598542        2.00843145977780        0.98851250032633
H            0.67797646582750        2.17231899888932        1.68160071079688
H            0.54655761911507        2.53218643075428       -0.02126198375786
H            1.47987794008264        1.10815142153778       -1.60951879886272
H            3.55300396254193       -0.19346784425840       -1.97987134483773
H            2.28853948488972       -1.38832212617170       -1.80235271828866
H            4.38127821528660       -0.57061240870790        0.25851453848912
H            4.08089657987829       -2.17149971494723       -0.37664458425463
H            3.15472163548737       -1.97508904577649        1.93761678640740
H            1.85985429142784       -2.22762479343543        0.79008748790214
H            2.63238365757643        0.39050564352143        2.15888814918174
H            1.09052645866012       -0.42810865347436        2.21457627981376
