36
 xtb: 6.5.1 (fef0646)
N           -4.39645474273300        0.46964347898795        1.70484323238837
C           -4.57882806673140        1.63085788603197        0.79300004835809
C           -3.98842545114933        1.36937260348850       -0.59071193010398
C           -2.54105678415505        0.97502531957011       -0.53515707398868
C           -1.54723703797180        1.93763859938256       -0.42087813034030
C           -0.21990533148790        1.57567329443579       -0.32299764110538
C            0.15937826476973        0.23240465473498       -0.32831737370688
C            1.55154734946253       -0.19400330496461       -0.22280888298223
C            2.60302614521292        0.62040730320843       -0.03923540691743
C            3.99388451008809        0.18840412819865        0.06552578347683
C            4.96431898812987        1.09426191916797        0.49887585270612
C            6.28720177034914        0.71872271078943        0.60822783262604
C            6.67130668448412       -0.56780975203715        0.28306975659129
C            5.72790859563683       -1.47763251108740       -0.15375645200513
C            4.40328809406582       -1.10600394018120       -0.26244345516625
C           -0.84646226523585       -0.72908717633139       -0.43590474403628
C           -2.17264078959216       -0.36301901343784       -0.53427212793098
Cl          -5.11354144787621       -2.46099406817520       -0.27731792873510
H           -4.89926371513756        0.54375852144393        2.59056891876539
H           -3.40724765345521        0.27650915444416        1.89273600498070
H           -4.75777474788875       -0.42180179524875        1.22806502003360
H           -4.10519147861847        2.48939312581242        1.25648414394225
H           -5.64619201127403        1.86345321668830        0.71508072949970
H           -4.09637769145022        2.26323844600208       -1.21959993192239
H           -4.55119447946017        0.58254746763832       -1.09915349130103
H           -1.81900958293223        2.97943535923910       -0.44548080298356
H            0.53862167044784        2.34030074361911       -0.29832546103198
H            1.73239401119623       -1.25189178718558       -0.35312810846940
H            2.41651921143076        1.66242546069459        0.13020822245050
H            4.65665383163444        2.08594565004711        0.79708403939103
H            7.01659777195494        1.42765436749666        0.97368156696893
H            7.70986092860936       -0.85041646227034        0.35459626202760
H            6.03769298979616       -2.46600034070152       -0.44700999375474
H            3.68683274581047       -1.81459075655603       -0.63625888731477
H           -0.57942628156197       -1.77439633078149       -0.41449982308299
H           -2.94368782976088       -1.11585895948793       -0.56155876618508
