 xtb: 6.5.1 (fef0646)
          01232313513D

 27 28  0     0  0            999 V2000
    3.0900    0.5875    0.7243 N   0  0  0  0  0  0  0  0  0  0  0  0
    2.5258   -0.7603    0.4171 C   0  0  0  0  0  0  0  0  0  0  0  0
    3.0197   -1.1761   -0.9708 C   0  0  0  0  0  0  0  0  0  0  0  0
    4.5260   -1.1128   -0.9798 C   0  0  0  0  0  0  0  0  0  0  0  0
    5.2858   -2.1963   -0.6232 C   0  0  0  0  0  0  0  0  0  0  0  0
    6.6897   -2.1101   -0.5359 C   0  0  0  0  0  0  0  0  0  0  0  0
    7.4857   -3.2220   -0.1906 C   0  0  0  0  0  0  0  0  0  0  0  0
    8.8458   -3.1053   -0.1181 C   0  0  0  0  0  0  0  0  0  0  0  0
    9.4719   -1.8760   -0.3843 C   0  0  0  0  0  0  0  0  0  0  0  0
    8.7291   -0.7782   -0.7176 C   0  0  0  0  0  0  0  0  0  0  0  0
    7.3237   -0.8651   -0.8031 C   0  0  0  0  0  0  0  0  0  0  0  0
    6.5273    0.2355   -1.1730 C   0  0  0  0  0  0  0  0  0  0  0  0
    5.1627    0.1234   -1.2529 C   0  0  0  0  0  0  0  0  0  0  0  0
    3.1343    0.7778    1.7294 H   0  0  0  0  0  0  0  0  0  0  0  0
    2.5425    1.3258    0.2691 H   0  0  0  0  0  0  0  0  0  0  0  0
    4.0604    0.5845    0.2924 H   0  0  0  0  0  0  0  0  0  0  0  0
    1.4378   -0.7294    0.4690 H   0  0  0  0  0  0  0  0  0  0  0  0
    2.8979   -1.4647    1.1621 H   0  0  0  0  0  0  0  0  0  0  0  0
    2.6002   -0.5172   -1.7325 H   0  0  0  0  0  0  0  0  0  0  0  0
    2.6768   -2.1884   -1.1771 H   0  0  0  0  0  0  0  0  0  0  0  0
    4.8130   -3.1457   -0.4177 H   0  0  0  0  0  0  0  0  0  0  0  0
    7.0019   -4.1663    0.0103 H   0  0  0  0  0  0  0  0  0  0  0  0
    9.4506   -3.9601    0.1424 H   0  0  0  0  0  0  0  0  0  0  0  0
   10.5471   -1.8071   -0.3252 H   0  0  0  0  0  0  0  0  0  0  0  0
    9.2050    0.1683   -0.9263 H   0  0  0  0  0  0  0  0  0  0  0  0
    7.0099    1.1723   -1.4085 H   0  0  0  0  0  0  0  0  0  0  0  0
    4.5874    0.9521   -1.6496 H   0  0  0  0  0  0  0  0  0  0  0  0
  1  2  1  0  0  0  0
  2  3  1  0  0  0  0
  3  4  1  0  0  0  0
  4  5  2  0  0  0  0
  5  6  4  0  0  0  0
  6  7  4  0  0  0  0
  7  8  2  0  0  0  0
  8  9  4  0  0  0  0
  9 10  2  0  0  0  0
  6 11  4  0  0  0  0
 10 11  4  0  0  0  0
 11 12  4  0  0  0  0
  4 13  4  0  0  0  0
 12 13  2  0  0  0  0
  1 14  1  0  0  0  0
  1 15  1  0  0  0  0
  1 16  1  0  0  0  0
  2 17  1  0  0  0  0
  2 18  1  0  0  0  0
  3 19  1  0  0  0  0
  3 20  1  0  0  0  0
  5 21  1  0  0  0  0
  7 22  1  0  0  0  0
  8 23  1  0  0  0  0
  9 24  1  0  0  0  0
 10 25  1  0  0  0  0
 12 26  1  0  0  0  0
 13 27  1  0  0  0  0
M  CHG  1   1   1
M  END
