 xtb: 6.5.1 (fef0646)
          01242310113D

 41 40  0     0  0            999 V2000
   -4.5665   -1.9628   -0.5707 N   0  0  0  0  0  0  0  0  0  0  0  0
   -4.9854   -0.9901    0.4777 C   0  0  0  0  0  0  0  0  0  0  0  0
   -4.7521    0.4609    0.0694 C   0  0  0  0  0  0  0  0  0  0  0  0
   -3.2824    0.8181   -0.1680 C   0  0  0  0  0  0  0  0  0  0  0  0
   -2.4062    0.6783    1.0784 C   0  0  0  0  0  0  0  0  0  0  0  0
   -0.9760    1.1938    0.8902 C   0  0  0  0  0  0  0  0  0  0  0  0
   -0.1563    0.3929   -0.1225 C   0  0  0  0  0  0  0  0  0  0  0  0
    1.2905    0.8769   -0.2395 C   0  0  0  0  0  0  0  0  0  0  0  0
    2.1041    0.0930   -1.2701 C   0  0  0  0  0  0  0  0  0  0  0  0
    3.5363    0.6059   -1.4501 C   0  0  0  0  0  0  0  0  0  0  0  0
    4.4300    0.4540   -0.2151 C   0  0  0  0  0  0  0  0  0  0  0  0
    4.6872   -0.9994    0.1878 C   0  0  0  0  0  0  0  0  0  0  0  0
    5.6506   -1.1281    1.3578 C   0  0  0  0  0  0  0  0  0  0  0  0
   -4.7832   -2.9347   -0.2996 H   0  0  0  0  0  0  0  0  0  0  0  0
   -3.5532   -1.9134   -0.7534 H   0  0  0  0  0  0  0  0  0  0  0  0
   -5.0515   -1.7759   -1.4612 H   0  0  0  0  0  0  0  0  0  0  0  0
   -4.4557   -1.2099    1.4115 H   0  0  0  0  0  0  0  0  0  0  0  0
   -6.0477   -1.1497    0.7039 H   0  0  0  0  0  0  0  0  0  0  0  0
   -5.1639    1.1312    0.8342 H   0  0  0  0  0  0  0  0  0  0  0  0
   -5.3325    0.6685   -0.8381 H   0  0  0  0  0  0  0  0  0  0  0  0
   -3.2092    1.8485   -0.5379 H   0  0  0  0  0  0  0  0  0  0  0  0
   -2.8793    0.1989   -0.9764 H   0  0  0  0  0  0  0  0  0  0  0  0
   -2.3738   -0.3708    1.3924 H   0  0  0  0  0  0  0  0  0  0  0  0
   -2.8852    1.2122    1.9086 H   0  0  0  0  0  0  0  0  0  0  0  0
   -0.4506    1.1906    1.8533 H   0  0  0  0  0  0  0  0  0  0  0  0
   -1.0038    2.2461    0.5845 H   0  0  0  0  0  0  0  0  0  0  0  0
   -0.6346    0.4377   -1.1072 H   0  0  0  0  0  0  0  0  0  0  0  0
   -0.1666   -0.6679    0.1534 H   0  0  0  0  0  0  0  0  0  0  0  0
    1.7736    0.8177    0.7420 H   0  0  0  0  0  0  0  0  0  0  0  0
    1.3000    1.9418   -0.4993 H   0  0  0  0  0  0  0  0  0  0  0  0
    1.5776    0.1252   -2.2323 H   0  0  0  0  0  0  0  0  0  0  0  0
    2.1187   -0.9673   -0.9949 H   0  0  0  0  0  0  0  0  0  0  0  0
    3.4979    1.6607   -1.7494 H   0  0  0  0  0  0  0  0  0  0  0  0
    4.0099    0.0870   -2.2928 H   0  0  0  0  0  0  0  0  0  0  0  0
    3.9947    0.9966    0.6312 H   0  0  0  0  0  0  0  0  0  0  0  0
    5.3948    0.9448   -0.3959 H   0  0  0  0  0  0  0  0  0  0  0  0
    5.0749   -1.5508   -0.6780 H   0  0  0  0  0  0  0  0  0  0  0  0
    3.7366   -1.4875    0.4343 H   0  0  0  0  0  0  0  0  0  0  0  0
    6.6211   -0.6882    1.1213 H   0  0  0  0  0  0  0  0  0  0  0  0
    5.8232   -2.1704    1.6338 H   0  0  0  0  0  0  0  0  0  0  0  0
    5.2705   -0.6135    2.2420 H   0  0  0  0  0  0  0  0  0  0  0  0
  1  2  1  0  0  0  0
  2  3  1  0  0  0  0
  3  4  1  0  0  0  0
  4  5  1  0  0  0  0
  5  6  1  0  0  0  0
  6  7  1  0  0  0  0
  7  8  1  0  0  0  0
  8  9  1  0  0  0  0
  9 10  1  0  0  0  0
 10 11  1  0  0  0  0
 11 12  1  0  0  0  0
 12 13  1  0  0  0  0
  1 14  1  0  0  0  0
  1 15  1  0  0  0  0
  1 16  1  0  0  0  0
  2 17  1  0  0  0  0
  2 18  1  0  0  0  0
  3 19  1  0  0  0  0
  3 20  1  0  0  0  0
  4 21  1  0  0  0  0
  4 22  1  0  0  0  0
  5 23  1  0  0  0  0
  5 24  1  0  0  0  0
  6 25  1  0  0  0  0
  6 26  1  0  0  0  0
  7 27  1  0  0  0  0
  7 28  1  0  0  0  0
  8 29  1  0  0  0  0
  8 30  1  0  0  0  0
  9 31  1  0  0  0  0
  9 32  1  0  0  0  0
 10 33  1  0  0  0  0
 10 34  1  0  0  0  0
 11 35  1  0  0  0  0
 11 36  1  0  0  0  0
 12 37  1  0  0  0  0
 12 38  1  0  0  0  0
 13 39  1  0  0  0  0
 13 40  1  0  0  0  0
 13 41  1  0  0  0  0
M  CHG  1   1   1
M  END
