  28

 N          0.8810371735        0.3895830296        0.2458412002
 C          2.3373845547        0.1531911454        0.0671480871
 C          2.6560399201        0.0368936489       -1.4196057304
 C          2.7439761149       -1.0843490700        0.8290843294
 C          2.1581484879       -2.3286250413        0.5206404371
 C          2.5159611300       -3.4577318273        1.1987499160
 C          3.6869650375       -1.0154066527        1.8192966368
 C          4.0793899595       -2.1619394391        2.5392022350
 C          3.4814057433       -3.4099124387        2.2256146315
 C          3.8686997916       -4.5557687176        2.9504978861
 C          4.8033953258       -4.4692520158        3.9440286052
 C          5.3939587199       -3.2341331577        4.2564344659
 C          5.0419953272       -2.1065203421        3.5688043181
 Cl         0.2313854351        0.8116584272        3.1837289227
 H          0.6524460095        0.5342391376        1.2645197429
 H          0.3408789286       -0.4177269601       -0.0757207443
 H          0.5791948568        1.2243432565       -0.2626286193
 H          2.8619464922        1.0106343522        0.4951223592
 H          2.1265082679       -0.7978779454       -1.8678175706
 H          3.7202701548       -0.1308882425       -1.5517840131
 H          2.3896677548        0.9514587394       -1.9409409216
 H          1.4220099183       -2.4015195235       -0.2649140261
 H          2.0613587865       -4.4086813068        0.9624697819
 H          4.1418244001       -0.0696493553        2.0759348813
 H          3.4105243708       -5.5039827223        2.7083497573
 H          5.0944777387       -5.3492848956        4.4983944955
 H          6.1283177968       -3.1838637181        5.0469133354
 H          5.4917418031       -1.1534983648        3.8082356010
