22
 xtb: 6.5.1 (fef0646)
N            1.21025502912623       -0.08847553339426       -0.81774756389076
C            0.37418565906150        0.20572595772436        0.39082775849613
C            0.38857292585341        1.69929309325893        0.70072977995605
C           -1.04029791130866       -0.31591093048930        0.26798116061484
C           -1.87842612935289        0.11446881552729       -0.74927180172147
C           -3.17855868359643       -0.34466336728984       -0.83759608645580
C           -3.66090862885443       -1.24200038153802        0.09334958981599
C           -2.83806269785306       -1.68066910647806        1.11083687967117
C           -1.53904635547967       -1.21994675599527        1.19720889516287
Cl           4.19172513903825        0.93166416077774       -0.44369259984219
H            0.75288265292504        0.36781187857895       -1.65957576137119
H            1.13933753490890       -1.12609563721324       -1.04234758378237
H            2.13332255298708        0.19184709940720       -0.73965523802872
H            0.82649562324356       -0.33410551161682        1.22709251790737
H            1.41004555288532        2.04911258994062        0.80926518784027
H           -0.16180787688287        1.92577663954989        1.60470256863291
H           -0.06719141144913        2.26021267886810       -0.11921723794867
H           -1.53290329412703        0.82317044179015       -1.46342069546969
H           -3.83965201844375       -0.00422903168498       -1.63018050945340
H           -4.69252329766334       -1.61307873424602        0.02351490947910
H           -3.22912245257409       -2.39273404990781        1.84049806158372
H           -0.92186576085649       -1.56382459838577        2.00156845182278
