22
 xtb: 6.5.1 (fef0646)
N            1.07004603307056       -0.15779817480707       -0.87514439972804
C            0.30880887665409        0.17699032962602        0.37214997909734
C            0.36726571876991        1.67074757053836        0.66978950215782
C           -1.11266425427916       -0.32451258143153        0.28046258777453
C           -1.95543889886487        0.11330185668054       -0.72973748977540
C           -3.25394987280025       -0.34905192897082       -0.81514911356618
C           -3.72674576514812       -1.25586775626392        0.11160147325437
C           -2.89913421189364       -1.69806569282140        1.12375739317715
C           -1.60090332914935       -1.23526413068256        1.20734953289153
Cl           4.61452401622879        1.06338436100981       -0.42354750022519
H            0.70727748624042        0.35040782787079       -1.67087403095419
H            1.08999636369287       -1.14553303597418       -1.05461538762959
H            2.09316959787736        0.16359778297355       -0.76836185846715
H            0.81219980204272       -0.34431070082552        1.21769268312464
H            1.40659764137354        2.03485092652348        0.79513924900676
H           -0.16159242873318        1.92231996113041        1.59831940365229
H           -0.07417948064008        2.25410909430324       -0.12618496527139
H           -1.55703391643446        0.82520290877935       -1.45636207169298
H           -3.86304917687209       -0.00474105624230       -1.62205008141690
H           -4.71106677141611       -1.61854915011126        0.02902747616647
H           -3.24543523365762       -2.39955868452630        1.84314995102202
H           -0.93796088190419       -1.56930961349336        2.00251683273817
