 xtb: 6.5.1 (fef0646)
          01242317093D

 18 16  0     0  0            999 V2000
   -2.4342   -1.9331   -0.9650 N   0  0  0  0  0  0  0  0  0  0  0  0
   -1.7670   -2.4489    0.2651 C   0  0  0  0  0  0  0  0  0  0  0  0
   -0.9355   -1.3838    0.9742 C   0  0  0  0  0  0  0  0  0  0  0  0
    0.2532   -0.8922    0.1458 C   0  0  0  0  0  0  0  0  0  0  0  0
    1.0981    0.1401    0.8698 C   0  0  0  0  0  0  0  0  0  0  0  0
    2.5899    0.7739   -0.1806 Br  0  0  0  0  0  0  0  0  0  0  0  0
   -4.1102    1.0078   -0.0413 Cl  0  0  0  0  0  0  0  0  0  0  0  0
   -3.0734   -2.6286   -1.3808 H   0  0  0  0  0  0  0  0  0  0  0  0
   -1.7458   -1.6735   -1.6837 H   0  0  0  0  0  0  0  0  0  0  0  0
   -2.9833   -1.0881   -0.7464 H   0  0  0  0  0  0  0  0  0  0  0  0
   -1.1325   -3.3047    0.0073 H   0  0  0  0  0  0  0  0  0  0  0  0
   -2.5295   -2.8443    0.9478 H   0  0  0  0  0  0  0  0  0  0  0  0
   -0.5700   -1.7676    1.9345 H   0  0  0  0  0  0  0  0  0  0  0  0
   -1.5758   -0.5322    1.2300 H   0  0  0  0  0  0  0  0  0  0  0  0
   -0.0989   -0.4665   -0.8009 H   0  0  0  0  0  0  0  0  0  0  0  0
    0.8836   -1.7426   -0.1412 H   0  0  0  0  0  0  0  0  0  0  0  0
    1.5051   -0.2672    1.7973 H   0  0  0  0  0  0  0  0  0  0  0  0
    0.5013    1.0129    1.1414 H   0  0  0  0  0  0  0  0  0  0  0  0
  1  2  1  0  0  0  0
  2  3  1  0  0  0  0
  3  4  1  0  0  0  0
  4  5  1  0  0  0  0
  5  6  1  0  0  0  0
  1  8  1  0  0  0  0
  1  9  1  0  0  0  0
  1 10  1  0  0  0  0
  2 11  1  0  0  0  0
  2 12  1  0  0  0  0
  3 13  1  0  0  0  0
  3 14  1  0  0  0  0
  4 15  1  0  0  0  0
  4 16  1  0  0  0  0
  5 17  1  0  0  0  0
  5 18  1  0  0  0  0
M  END
