  18

 N         -0.8343522901       -1.7163375107        0.3105379487
 C          0.4903054325       -1.4438187043       -0.3205238587
 C          1.1741835694       -0.2211806872        0.2784465382
 C          2.5107843930        0.1056324470       -0.3895273568
 C          3.1854435835        1.3298518395        0.2116195115
 Cl        -2.7862857741        1.1767239102       -0.1147338987
 H         -1.3036114354       -2.5318352687       -0.1069409496
 H         -1.4605645552       -0.8999913375        0.2016325128
 H         -0.7321661817       -1.8905535297        1.3192503264
 H          0.3627432780       -1.3025835148       -1.4003375515
 H          1.1402077172       -2.3211749991       -0.2186632323
 H          1.3248484544       -0.3734092797        1.3535885320
 H          0.5048476520        0.6442516601        0.2071086396
 H          2.3521379468        0.2523663184       -1.4658023346
 H          3.1750095078       -0.7654443411       -0.3186196618
 H          2.5527217663        2.2147200947        0.1201486373
 H          4.1369021364        1.5556053458       -0.2749133842
 H          3.3868105117        1.1881027851        1.2750429311
          18
        -22.18844733
 N         -0.6128519680       -1.8904063608       -0.2909159554
 C          0.6768768141       -1.4854684163        0.3419013184
 C          1.2429088723       -0.2095124421       -0.2689234492
 C          2.5509170928        0.2400772290        0.3839990043
 C          3.1038204071        1.5195094771       -0.2264406578
 Cl        -2.7915122446        0.8378192841        0.0546678340
 H         -0.4882915384       -2.0752154042       -1.2951837211
 H         -1.3101216782       -1.1315591544       -0.2020093870
 H         -1.0097519888       -2.7360709140        0.1416332490
 H          1.4079385145       -2.2976407407        0.2512702714
 H          0.5319847880       -1.3448174820        1.4198577039
 H          0.4991437512        0.5926132421       -0.1948815332
 H          1.3966590770       -0.3537543609       -1.3448396092
 H          3.2912585639       -0.5668291589        0.3069553651
 H          2.3903576505        0.3744736813        1.4616735641
 H          3.3061808469        1.3937781365       -1.2917900681
 H          4.0354986046        1.8330822633        0.2496592972
 H          2.3931549944        2.3424655960       -0.1297255208
