  18

 N          1.3623822937       -0.4563356853       -0.1303517172
 C          2.8195592176       -0.2122314442       -0.0996854822
 C          3.1929017388        0.5758648066        1.1483661681
 C          4.6780462639        0.9323619409        1.1656169785
 C          5.0452998214        1.7345055186        2.4082221257
 Cl        -0.1615614538        2.1980422348       -0.0509157868
 H          1.0828942977       -0.9528309602       -0.9786320465
 H          0.8464221406        0.4602347572       -0.1114505550
 H          1.0637144160       -0.9823539145        0.6944991708
 H          3.0910489892        0.3648534962       -0.9831316839
 H          3.3487299463       -1.1658724302       -0.1183515316
 H          2.9571441387       -0.0032235349        2.0425534487
 H          2.5968379778        1.4904332204        1.1745352847
 H          4.9207013363        1.5177635808        0.2770071139
 H          5.2738941944        0.0181153514        1.1380925833
 H          4.4719513324        2.6585109666        2.4464056935
 H          6.1024687753        1.9880314492        2.4036642842
 H          4.8325745737        1.1654306466        3.3102159517
