21
1.584
N           -1.25214  -1.77986   0.28925
C            0.20594  -2.00027   0.51556
C            1.06385  -1.55629  -0.66652
C            0.96135  -0.06291  -0.98741
C            1.39418   0.86000   0.15611
C            2.85350   0.68800   0.55136
Cl          -2.04467   1.65530   0.01732
H           -1.82320  -2.14060   1.07030
H           -1.56449  -2.24868  -0.57188
H           -1.46703  -0.77600   0.18881
H            0.38041  -3.06343   0.72512
H            0.51939  -1.47582   1.42540
H            0.77769  -2.14150  -1.54956
H            2.11327  -1.81790  -0.48302
H           -0.06834   0.17207  -1.28394
H            1.56780   0.16427  -1.87379
H            0.74840   0.69436   1.02756
H            1.21311   1.90587  -0.12854
H            3.15226   1.39174   1.33165
H            3.51480   0.84634  -0.30250
H            3.05121  -0.31593   0.93056
