 xtb: 6.5.1 (fef0646)
          01242314583D

 19 17  0     0  0            999 V2000
    1.0609    0.1439    0.4446 N   0  0  0  0  0  0  0  0  0  0  0  0
    2.5348    0.0687    0.4932 C   0  0  0  0  0  0  0  0  0  0  0  0
    2.9987   -1.3130    0.0487 C   0  0  0  0  0  0  0  0  0  0  0  0
    4.5200   -1.3860   -0.0480 C   0  0  0  0  0  0  0  0  0  0  0  0
    4.9807   -2.7711   -0.5043 C   0  0  0  0  0  0  0  0  0  0  0  0
    6.3873   -2.8920   -0.5608 O   0  0  0  0  0  0  0  0  0  0  0  0
    0.1211   -0.4766   -2.3993 Cl  0  0  0  0  0  0  0  0  0  0  0  0
    0.7221    1.0746    0.6983 H   0  0  0  0  0  0  0  0  0  0  0  0
    0.6388   -0.5576    1.0579 H   0  0  0  0  0  0  0  0  0  0  0  0
    0.7295   -0.0618   -0.5332 H   0  0  0  0  0  0  0  0  0  0  0  0
    2.8797    0.2762    1.5069 H   0  0  0  0  0  0  0  0  0  0  0  0
    2.9402    0.8194   -0.1846 H   0  0  0  0  0  0  0  0  0  0  0  0
    2.5594   -1.5296   -0.9272 H   0  0  0  0  0  0  0  0  0  0  0  0
    2.6502   -2.0714    0.7505 H   0  0  0  0  0  0  0  0  0  0  0  0
    4.9716   -1.1724    0.9224 H   0  0  0  0  0  0  0  0  0  0  0  0
    4.8770   -0.6398   -0.7613 H   0  0  0  0  0  0  0  0  0  0  0  0
    4.5380   -3.0096   -1.4818 H   0  0  0  0  0  0  0  0  0  0  0  0
    4.6579   -3.5330    0.2097 H   0  0  0  0  0  0  0  0  0  0  0  0
    6.7324   -2.2519   -1.1977 H   0  0  0  0  0  0  0  0  0  0  0  0
  1  2  1  0  0  0  0
  2  3  1  0  0  0  0
  3  4  1  0  0  0  0
  4  5  1  0  0  0  0
  5  6  1  0  0  0  0
  1  8  1  0  0  0  0
  1  9  1  0  0  0  0
  1 10  1  0  0  0  0
  2 11  1  0  0  0  0
  2 12  1  0  0  0  0
  3 13  1  0  0  0  0
  3 14  1  0  0  0  0
  4 15  1  0  0  0  0
  4 16  1  0  0  0  0
  5 17  1  0  0  0  0
  5 18  1  0  0  0  0
  6 19  1  0  0  0  0
M  END
