36
 xtb: 6.5.1 (fef0646)
N           -5.59018376567278       -0.62201118858179       -0.23604276798918
C           -5.65077024659190        0.56432490005133        0.66229476179383
C           -4.81377712265107        1.73149340143069        0.14423329078960
C           -3.35203737913449        1.41137181910586        0.03369855179926
C           -2.57027243300716        1.28436412678582        1.17223892392445
C           -1.22836536984841        0.98553990910101        1.08061663079852
C           -0.61776855993351        0.80299404455187       -0.16063085007276
C            0.79741430966451        0.48618767103254       -0.30212378080597
C            1.68392214659191        0.42632509303238        0.70343572614004
C            3.09761513281382        0.10743823693467        0.55129647558387
C            3.60760222394853       -0.47009804939741       -0.61100184569754
C            4.95271519105734       -0.75965165483303       -0.73913827523471
F            5.42705822584826       -1.32567078137391       -1.88341477544479
C            5.80997678453078       -0.47520969794768        0.31035080656926
C            5.32529546440812        0.08484802033744        1.47417492682982
C            3.98339281259640        0.37266684808433        1.59682277425628
C           -1.41248678165951        0.92403862311067       -1.30084963848512
C           -2.75455786751429        1.21952546776916       -1.20363089519744
Cl          -2.29303885611229       -2.23145169044066       -0.18754451903457
H           -4.59058112355627       -0.99532690694397       -0.27952871140139
H           -5.84416449121420       -0.40066312077262       -1.19170344433008
H           -6.15611054084636       -1.41354531536710        0.09425423076557
H           -5.30135219107001        0.26920610680713        1.66551101660987
H           -6.69039512044429        0.84446208817394        0.77536143533374
H           -4.94137033668416        2.59680148761506        0.80047376380992
H           -5.19095985778227        2.03706532550316       -0.83126315344278
H           -3.01810933992687        1.45077108563373        2.13780803135299
H           -0.64096684706045        0.90866457129105        1.97868524352853
H            1.12788560683183        0.24556855759539       -1.30052122796036
H            1.36958782238601        0.72558904964952        1.68202669409912
H            2.96959191348792       -0.67021900555969       -1.44874018869450
H            6.84898333366899       -0.74427016834731        0.21955478197855
H            5.98893200277333        0.25247775950376        2.30830383385353
H            3.60451371505586        0.80196210804578        2.50856189365839
H           -0.97164680798716        0.75321038607117       -2.26852775501158
H           -3.35963445983033        1.28392010653777       -2.09186350491573
