 xtb: 6.5.1 (fef0646)
          01242317003D

 36 36  0     0  0            999 V2000
   -5.5436   -0.6472   -0.2328 N   0  0  0  0  0  0  0  0  0  0  0  0
   -5.6362    0.5419    0.6609 C   0  0  0  0  0  0  0  0  0  0  0  0
   -4.8138    1.7225    0.1496 C   0  0  0  0  0  0  0  0  0  0  0  0
   -3.3504    1.4141    0.0363 C   0  0  0  0  0  0  0  0  0  0  0  0
   -2.5628    1.3074    1.1725 C   0  0  0  0  0  0  0  0  0  0  0  0
   -1.2215    1.0062    1.0788 C   0  0  0  0  0  0  0  0  0  0  0  0
   -0.6191    0.7996   -0.1623 C   0  0  0  0  0  0  0  0  0  0  0  0
    0.7924    0.4685   -0.3047 C   0  0  0  0  0  0  0  0  0  0  0  0
    1.6943    0.4713    0.6867 C   0  0  0  0  0  0  0  0  0  0  0  0
    3.1032    0.1311    0.5414 C   0  0  0  0  0  0  0  0  0  0  0  0
    3.6178   -0.4350   -0.6247 C   0  0  0  0  0  0  0  0  0  0  0  0
    4.9565   -0.7552   -0.7393 C   0  0  0  0  0  0  0  0  0  0  0  0
    5.4338   -1.3111   -1.8871 F   0  0  0  0  0  0  0  0  0  0  0  0
    5.8051   -0.5089    0.3259 C   0  0  0  0  0  0  0  0  0  0  0  0
    5.3179    0.0467    1.4907 C   0  0  0  0  0  0  0  0  0  0  0  0
    3.9816    0.3628    1.6006 C   0  0  0  0  0  0  0  0  0  0  0  0
   -1.4192    0.9027   -1.3003 C   0  0  0  0  0  0  0  0  0  0  0  0
   -2.7599    1.2024   -1.2010 C   0  0  0  0  0  0  0  0  0  0  0  0
   -2.3508   -2.2059   -0.1879 Cl  0  0  0  0  0  0  0  0  0  0  0  0
   -4.5769   -1.0046   -0.2710 H   0  0  0  0  0  0  0  0  0  0  0  0
   -5.8238   -0.4079   -1.1931 H   0  0  0  0  0  0  0  0  0  0  0  0
   -6.1467   -1.4197    0.0906 H   0  0  0  0  0  0  0  0  0  0  0  0
   -5.2987    0.2651    1.6663 H   0  0  0  0  0  0  0  0  0  0  0  0
   -6.6878    0.8333    0.7718 H   0  0  0  0  0  0  0  0  0  0  0  0
   -4.9437    2.5925    0.8036 H   0  0  0  0  0  0  0  0  0  0  0  0
   -5.1921    2.0349   -0.8291 H   0  0  0  0  0  0  0  0  0  0  0  0
   -3.0146    1.4619    2.1378 H   0  0  0  0  0  0  0  0  0  0  0  0
   -0.6375    0.9180    1.9776 H   0  0  0  0  0  0  0  0  0  0  0  0
    1.1202    0.2180   -1.2975 H   0  0  0  0  0  0  0  0  0  0  0  0
    1.3771    0.7599    1.6725 H   0  0  0  0  0  0  0  0  0  0  0  0
    2.9756   -0.6491   -1.4579 H   0  0  0  0  0  0  0  0  0  0  0  0
    6.8461   -0.7612    0.2272 H   0  0  0  0  0  0  0  0  0  0  0  0
    5.9848    0.2334    2.3165 H   0  0  0  0  0  0  0  0  0  0  0  0
    3.6034    0.7970    2.5104 H   0  0  0  0  0  0  0  0  0  0  0  0
   -0.9751    0.7419   -2.2682 H   0  0  0  0  0  0  0  0  0  0  0  0
   -3.3627    1.2745   -2.0904 H   0  0  0  0  0  0  0  0  0  0  0  0
  1  2  1  0  0  0  0
  2  3  1  0  0  0  0
  3  4  1  0  0  0  0
  4  5  4  0  0  0  0
  5  6  4  0  0  0  0
  6  7  4  0  0  0  0
  7  8  1  0  0  0  0
  8  9  2  0  0  0  0
  9 10  1  0  0  0  0
 10 11  4  0  0  0  0
 11 12  4  0  0  0  0
 12 13  1  0  0  0  0
 12 14  4  0  0  0  0
 14 15  4  0  0  0  0
 10 16  4  0  0  0  0
 15 16  4  0  0  0  0
  7 17  4  0  0  0  0
  4 18  4  0  0  0  0
 17 18  4  0  0  0  0
  1 20  1  0  0  0  0
  1 21  1  0  0  0  0
  1 22  1  0  0  0  0
  2 23  1  0  0  0  0
  2 24  1  0  0  0  0
  3 25  1  0  0  0  0
  3 26  1  0  0  0  0
  5 27  1  0  0  0  0
  6 28  1  0  0  0  0
  8 29  1  0  0  0  0
  9 30  1  0  0  0  0
 11 31  1  0  0  0  0
 14 32  1  0  0  0  0
 15 33  1  0  0  0  0
 16 34  1  0  0  0  0
 17 35  1  0  0  0  0
 18 36  1  0  0  0  0
M  END
