 xtb: 6.5.1 (fef0646)
          01242314573D

 39 42  0     0  0            999 V2000
    3.2034   -1.4632    1.6910 N   0  0  0  0  0  0  0  0  0  0  0  0
    2.6386   -0.9228    0.4354 C   0  0  0  0  0  0  0  0  0  0  0  0
    3.5906    0.0994   -0.1910 C   0  0  0  0  0  0  0  0  0  0  0  0
    4.8171   -0.5302   -0.7610 C   0  0  0  0  0  0  0  0  0  0  0  0
    5.1784   -0.6489   -2.0688 C   0  0  0  0  0  0  0  0  0  0  0  0
    6.4058   -1.3121   -2.2571 C   0  0  0  0  0  0  0  0  0  0  0  0
    7.0004   -1.7112   -1.0881 C   0  0  0  0  0  0  0  0  0  0  0  0
    8.2270   -2.4061   -0.8933 C   0  0  0  0  0  0  0  0  0  0  0  0
    8.8267   -2.7639    0.2917 C   0  0  0  0  0  0  0  0  0  0  0  0
   10.0389   -3.4370    0.1161 C   0  0  0  0  0  0  0  0  0  0  0  0
   10.3841   -3.6076   -1.2058 C   0  0  0  0  0  0  0  0  0  0  0  0
   11.5349   -4.2470   -1.7458 C   0  0  0  0  0  0  0  0  0  0  0  0
   12.5827   -4.8349   -1.0739 C   0  0  0  0  0  0  0  0  0  0  0  0
   13.5504   -5.3780   -1.9241 C   0  0  0  0  0  0  0  0  0  0  0  0
   13.2636   -5.2182   -3.2589 C   0  0  0  0  0  0  0  0  0  0  0  0
   14.0195   -5.6464   -4.3874 C   0  0  0  0  0  0  0  0  0  0  0  0
   13.7267   -5.4950   -5.7193 C   0  0  0  0  0  0  0  0  0  0  0  0
   14.7066   -6.0468   -6.5651 C   0  0  0  0  0  0  0  0  0  0  0  0
   15.7347   -6.6137   -5.8809 C   0  0  0  0  0  0  0  0  0  0  0  0
   15.5334   -6.4864   -4.1782 S   0  0  0  0  0  0  0  0  0  0  0  0
   11.7590   -4.3727   -3.4715 S   0  0  0  0  0  0  0  0  0  0  0  0
    9.1848   -2.9176   -2.2604 S   0  0  0  0  0  0  0  0  0  0  0  0
    6.0328   -1.2457    0.2685 S   0  0  0  0  0  0  0  0  0  0  0  0
    2.5841   -2.1722    2.0975 H   0  0  0  0  0  0  0  0  0  0  0  0
    3.3437   -0.7092    2.3727 H   0  0  0  0  0  0  0  0  0  0  0  0
    4.1242   -1.8866    1.5028 H   0  0  0  0  0  0  0  0  0  0  0  0
    1.6872   -0.4376    0.6487 H   0  0  0  0  0  0  0  0  0  0  0  0
    2.4693   -1.7398   -0.2650 H   0  0  0  0  0  0  0  0  0  0  0  0
    3.8751    0.8428    0.5546 H   0  0  0  0  0  0  0  0  0  0  0  0
    3.0717    0.6152   -0.9978 H   0  0  0  0  0  0  0  0  0  0  0  0
    4.5898   -0.2714   -2.8851 H   0  0  0  0  0  0  0  0  0  0  0  0
    6.8560   -1.4977   -3.2166 H   0  0  0  0  0  0  0  0  0  0  0  0
    8.4054   -2.5436    1.2566 H   0  0  0  0  0  0  0  0  0  0  0  0
   10.6485   -3.7903    0.9268 H   0  0  0  0  0  0  0  0  0  0  0  0
   12.6487   -4.8711   -0.0024 H   0  0  0  0  0  0  0  0  0  0  0  0
   14.4402   -5.8780   -1.5844 H   0  0  0  0  0  0  0  0  0  0  0  0
   12.8358   -5.0031   -6.0678 H   0  0  0  0  0  0  0  0  0  0  0  0
   14.6491   -6.0234   -7.6379 H   0  0  0  0  0  0  0  0  0  0  0  0
   16.6072   -7.1021   -6.2653 H   0  0  0  0  0  0  0  0  0  0  0  0
  1  2  1  0  0  0  0
  2  3  1  0  0  0  0
  3  4  1  0  0  0  0
  4  5  2  0  0  0  0
  5  6  4  0  0  0  0
  6  7  2  0  0  0  0
  7  8  1  0  0  0  0
  8  9  4  0  0  0  0
  9 10  4  0  0  0  0
 10 11  4  0  0  0  0
 11 12  1  0  0  0  0
 12 13  4  0  0  0  0
 13 14  4  0  0  0  0
 14 15  4  0  0  0  0
 15 16  1  0  0  0  0
 16 17  2  0  0  0  0
 17 18  4  0  0  0  0
 18 19  2  0  0  0  0
 16 20  1  0  0  0  0
 19 20  1  0  0  0  0
 12 21  1  0  0  0  0
 15 21  1  0  0  0  0
  8 22  1  0  0  0  0
 11 22  1  0  0  0  0
  4 23  1  0  0  0  0
  7 23  1  0  0  0  0
  1 24  1  0  0  0  0
  1 25  1  0  0  0  0
  1 26  1  0  0  0  0
  2 27  1  0  0  0  0
  2 28  1  0  0  0  0
  3 29  1  0  0  0  0
  3 30  1  0  0  0  0
  5 31  1  0  0  0  0
  6 32  1  0  0  0  0
  9 33  1  0  0  0  0
 10 34  1  0  0  0  0
 13 35  1  0  0  0  0
 14 36  1  0  0  0  0
 17 37  1  0  0  0  0
 18 38  1  0  0  0  0
 19 39  1  0  0  0  0
M  CHG  1   1   1
M  END
