  27

 N          2.8171400000        2.4391400000       -1.2521200000
 C          2.4143500000        1.1640200000       -0.5986500000
 C          3.0491200000       -0.0353800000       -1.3070500000
 C          4.5589700000       -0.0001400000       -1.3249400000
 C          5.2980700000       -0.0018700000       -0.1309200000
 C          6.7041700000        0.0436000000       -0.1421700000
 C          7.4487000000        0.0566700000        1.0494100000
 C          8.8435900000        0.1050100000        1.0203300000
 C          9.5135100000        0.1321200000       -0.1986500000
 C          8.7899300000        0.1103200000       -1.3917100000
 C          7.3863100000        0.0691500000       -1.3788800000
 C          6.6441400000        0.0433300000       -2.5685700000
 C          5.2475900000        0.0088200000       -2.5430800000
 H          2.4003000000        3.2514000000       -0.7803600000
 H          2.5367300000        2.4712400000       -2.2399200000
 H          3.8416000000        2.5580200000       -1.2214800000
 H          1.3225400000        1.1158700000       -0.6509300000
 H          2.7184500000        1.2409800000        0.4493200000
 H          2.6662700000       -0.0820600000       -2.3346900000
 H          2.7272100000       -0.9625300000       -0.8178400000
 H          4.7877100000       -0.0606700000        0.8295000000
 H          6.9514300000        0.0247800000        2.0164800000
 H          9.4084200000        0.1161300000        1.9497500000
 H         10.6003500000        0.1635300000       -0.2219100000
 H          9.3356800000        0.1199400000       -2.3334900000
 H          7.1561300000        0.0334800000       -3.5301400000
 H          4.7157900000       -0.0356500000       -3.4921500000
