26
0.154
N           -3.39041   0.16507   1.56185
C           -3.68530   1.38211   0.75854
C           -2.90715   1.38724  -0.55441
C           -1.43930   1.26733  -0.34599
C           -0.59690   2.30168  -0.09085
C            0.75621   1.90570   0.08178
C            0.95273   0.56024  -0.03930
C            2.22394  -0.11583   0.08436
C            2.42237  -1.46184  -0.04156
C            3.77792  -1.85780   0.12635
C            4.61019  -0.82092   0.37947
S            3.74400   0.67109   0.41805
S           -0.56311  -0.23359  -0.36722
Cl          -3.25478  -2.17553  -0.93936
H           -3.50465  -0.67970   0.97232
H           -3.99909   0.07237   2.39167
H           -2.40980   0.16780   1.88264
H           -3.43515   2.27434   1.34512
H           -4.76330   1.44526   0.56295
H           -3.12053   2.29599  -1.13060
H           -3.23903   0.55247  -1.18225
H           -0.92974   3.32671  -0.02440
H            1.55961   2.59647   0.28736
H            1.61934  -2.15236  -0.25007
H            4.10695  -2.88513   0.05732
H            5.67037  -0.89691   0.53754
