45
 xtb: 6.5.1 (fef0646)
N           -7.94866513447332       -1.44284936368461       -1.32737844869577
C           -8.38603082357139       -0.07871408378363       -0.91533341646708
C           -7.76033901289849        0.34583077289064        0.41215863202733
C           -6.29190507537466        0.57520439659370        0.30999679239933
C           -5.68831012200143        1.79028890777063        0.12692349776742
C           -4.28101999715345        1.72938335163641        0.08415196091415
C           -3.77511994487411        0.45423408881472        0.23305870810833
C           -2.39615632802709        0.09896720247837        0.23348658145158
C           -1.88768432568412       -1.18573846913549        0.33953175449435
C           -0.48898622428293       -1.27036560449754        0.29363844946062
C            0.23572344623272       -2.56659120295421        0.38810394894788
C            0.12779136641311       -0.02211897493055        0.15115228721835
C            1.51583862195627        0.26982780496567        0.07293209165085
C            2.04705876588584        1.55047742043696       -0.02310470691022
C            3.43828743172185        1.59103053333655       -0.08958496213766
C            4.04981311049378        0.34542879690519       -0.05161268948150
C            5.46021485639232        0.13648186900463       -0.11443099544979
C            6.15550722746476       -1.06642566134361       -0.10742406777787
C            5.52697739116391       -2.41376556726344       -0.02688489097959
C            7.56071937932254       -0.88621598001886       -0.18452024967916
C            7.95367083843745        0.41483908725365       -0.24459293314956
S            6.59868913031126        1.45940043432371       -0.16833047651866
S            2.82354232678869       -0.87722006954947        0.06286293677524
S           -1.08699155500304        1.21814500817384        0.06951337523661
S           -5.09094950928169       -0.66385799498478        0.46309849551934
H           -8.22112202042720       -1.66755184559841       -2.30002685152166
H           -8.30596638892207       -2.15656559600992       -0.70717440630806
H           -6.90123587070169       -1.49333319093278       -1.28745433245795
H           -9.46862607886639       -0.05045996837342       -0.87444253419508
H           -8.09069303328998        0.65574877325196       -1.69163494149617
H           -7.95650780082945       -0.43321334421746        1.16336528828567
H           -8.24756759966844        1.25025203057030        0.79370258897951
H           -6.24214619146019        2.71837712964534        0.13919896536496
H           -3.64926559098351        2.60237045474214        0.05144982129559
H           -2.52510248290235       -2.05379541364474        0.42066801119315
H            0.90833719659035       -2.57932016977905        1.21895789364192
H            0.82455926780118       -2.74244902941648       -0.53835631892755
H           -0.45996405284469       -3.40312956349276        0.47266492180559
H            1.42348238870910        2.43050942789502       -0.08013737747209
H            3.99786339396157        2.50631999865443       -0.20254099049304
H            4.86601053719730       -2.59967689891802       -0.79914388096436
H            4.94503652489357       -2.48429729747163        0.96225190045285
H            6.28414671289142       -3.19532108229993        0.06248518358530
H            8.25523617979815       -1.71101147544662       -0.13472216031866
H            8.96750677007600        0.75893530747455       -0.32186595972611
