19
1.373
N           -0.83674  -1.88355   0.25462
C           -1.67867  -0.99876  -0.59947
C           -0.90273   0.20281  -1.14554
C           -0.53010   1.21137  -0.11059
C           -0.44293   2.55060  -0.31543
C           -0.04546   3.28956   0.84082
C            0.17198   2.51380   1.92543
S           -0.11378   0.85419   1.54307
Cl           1.82409  -3.06434  -1.66487
H           -0.04396  -2.26972  -0.28715
H           -1.36692  -2.66912   0.65765
H           -0.43877  -1.33175   1.02351
H           -2.54100  -0.64222  -0.02432
H           -2.09682  -1.58921  -1.42417
H           -1.48679   0.70279  -1.92737
H            0.00997  -0.14815  -1.63860
H           -0.64995   3.01165  -1.26898
H            0.07138   4.36339   0.84299
H            0.47751   2.86232   2.89386
