19
1.232
N           -1.60014  -1.76475  -1.16949
C           -2.37303  -1.13446  -0.06272
C           -2.24583   0.38759  -0.05760
C           -0.85140   0.85172   0.17658
C           -0.06467   1.48813  -0.72661
C            1.22956   1.81710  -0.22593
C            1.42130   1.42587   1.05228
S            0.01239   0.64187   1.67646
Cl           1.91796  -1.47957  -0.96997
H           -1.89755  -1.39192  -2.08445
H           -1.72020  -2.78719  -1.18994
H           -0.59137  -1.57250  -1.07204
H           -2.02594  -1.53353   0.89743
H           -3.42749  -1.42673  -0.14136
H           -2.89539   0.82411   0.71024
H           -2.60374   0.78925  -1.01168
H           -0.39075   1.72296  -1.72797
H            1.97917   2.32562  -0.81412
H            2.32081   1.57216   1.61989
