41

N          0.92763       -0.00341       -0.07529
C          2.40691        0.00117       -0.06755
C          2.90441       -0.11684       -1.49182
C          4.42735       -0.11635       -1.51052
C          4.94337       -0.23259       -2.93775
C          6.46334       -0.23299       -2.94146
C          6.98029       -0.34698       -4.36671
C          8.50000       -0.34745       -4.37252
C          9.01550       -0.46151       -5.79781
C         10.53664       -0.46228       -5.80739
C         11.05361       -0.57648       -7.23432
C         12.57559       -0.57808       -7.25414
C         13.09024       -0.69209       -8.67869
H          0.55450        0.07519        0.87451
H          0.55575       -0.87268       -0.48323
H          0.55128        0.78377       -0.62211
H          2.72673       -0.84406        0.55112
H          2.72200        0.93932        0.40161
H          2.52691        0.71754       -2.09681
H          2.52943       -1.04090       -1.95033
H          4.80632       -0.95278       -0.91197
H          4.80409        0.80736       -1.05627
H          4.56953        0.60426       -3.53951
H          4.56964       -1.15587       -3.39626
H          6.83841       -1.06924       -2.34164
H          6.83846        0.68829       -2.48243
H          6.60551        0.49061       -4.96648
H          6.60549       -1.26927       -4.82561
H          8.87496       -1.18516       -3.77230
H          8.87495        0.57508       -3.91317
H          8.63890        0.37629       -6.39750
H          8.63890       -1.38403       -6.25662
H         10.91063       -1.29988       -5.20601
H         10.91063        0.46030       -5.34688
H         10.67332        0.26129       -7.83141
H         10.67331       -1.49855       -7.69058
H         12.95676       -1.41607       -6.65886
H         12.95677        0.34393       -6.79971
H         12.73861       -1.61908       -9.14257
H         14.18151       -0.69283       -8.68790
H         12.73862        0.14934       -9.28410
