 xtb: 6.5.1 (fef0646)
          01232314183D

 41 40  0     0  0            999 V2000
    0.8277    0.0017   -0.0136 N   0  0  0  0  0  0  0  0  0  0  0  0
    2.3272    0.0039   -0.0280 C   0  0  0  0  0  0  0  0  0  0  0  0
    2.8466   -0.1137   -1.4524 C   0  0  0  0  0  0  0  0  0  0  0  0
    4.3780   -0.1137   -1.4772 C   0  0  0  0  0  0  0  0  0  0  0  0
    4.9153   -0.2298   -2.9027 C   0  0  0  0  0  0  0  0  0  0  0  0
    6.4421   -0.2318   -2.9323 C   0  0  0  0  0  0  0  0  0  0  0  0
    6.9825   -0.3462   -4.3557 C   0  0  0  0  0  0  0  0  0  0  0  0
    8.5090   -0.3487   -4.3876 C   0  0  0  0  0  0  0  0  0  0  0  0
    9.0504   -0.4626   -5.8105 C   0  0  0  0  0  0  0  0  0  0  0  0
   10.5767   -0.4653   -5.8452 C   0  0  0  0  0  0  0  0  0  0  0  0
   11.1152   -0.5793   -7.2691 C   0  0  0  0  0  0  0  0  0  0  0  0
   12.6414   -0.5826   -7.3105 C   0  0  0  0  0  0  0  0  0  0  0  0
   13.1676   -0.6966   -8.7357 C   0  0  0  0  0  0  0  0  0  0  0  0
    0.4583    0.0807    0.9421 H   0  0  0  0  0  0  0  0  0  0  0  0
    0.4792   -0.8700   -0.4344 H   0  0  0  0  0  0  0  0  0  0  0  0
    0.4753    0.7898   -0.5732 H   0  0  0  0  0  0  0  0  0  0  0  0
    2.6785   -0.8339    0.5756 H   0  0  0  0  0  0  0  0  0  0  0  0
    2.6744    0.9318    0.4283 H   0  0  0  0  0  0  0  0  0  0  0  0
    2.4859    0.7240   -2.0528 H   0  0  0  0  0  0  0  0  0  0  0  0
    2.4883   -1.0399   -1.9062 H   0  0  0  0  0  0  0  0  0  0  0  0
    4.7517   -0.9492   -0.8834 H   0  0  0  0  0  0  0  0  0  0  0  0
    4.7494    0.8082   -1.0274 H   0  0  0  0  0  0  0  0  0  0  0  0
    4.5460    0.6061   -3.5002 H   0  0  0  0  0  0  0  0  0  0  0  0
    4.5465   -1.1517   -3.3569 H   0  0  0  0  0  0  0  0  0  0  0  0
    6.8150   -1.0681   -2.3373 H   0  0  0  0  0  0  0  0  0  0  0  0
    6.8145    0.6891   -2.4787 H   0  0  0  0  0  0  0  0  0  0  0  0
    6.6113    0.4901   -4.9523 H   0  0  0  0  0  0  0  0  0  0  0  0
    6.6113   -1.2670   -4.8111 H   0  0  0  0  0  0  0  0  0  0  0  0
    8.8816   -1.1851   -3.7920 H   0  0  0  0  0  0  0  0  0  0  0  0
    8.8815    0.5720   -3.9327 H   0  0  0  0  0  0  0  0  0  0  0  0
    8.6780    0.3738   -6.4066 H   0  0  0  0  0  0  0  0  0  0  0  0
    8.6781   -1.3832   -6.2659 H   0  0  0  0  0  0  0  0  0  0  0  0
   10.9503   -1.3018   -5.2498 H   0  0  0  0  0  0  0  0  0  0  0  0
   10.9502    0.4552   -5.3904 H   0  0  0  0  0  0  0  0  0  0  0  0
   10.7414    0.2573   -7.8642 H   0  0  0  0  0  0  0  0  0  0  0  0
   10.7414   -1.4999   -7.7236 H   0  0  0  0  0  0  0  0  0  0  0  0
   13.0165   -1.4194   -6.7169 H   0  0  0  0  0  0  0  0  0  0  0  0
   13.0165    0.3380   -6.8575 H   0  0  0  0  0  0  0  0  0  0  0  0
   12.8206   -1.6182   -9.1981 H   0  0  0  0  0  0  0  0  0  0  0  0
   14.2548   -0.6973   -8.7438 H   0  0  0  0  0  0  0  0  0  0  0  0
   12.8206    0.1396   -9.3388 H   0  0  0  0  0  0  0  0  0  0  0  0
  1  2  1  0  0  0  0
  2  3  1  0  0  0  0
  3  4  1  0  0  0  0
  4  5  1  0  0  0  0
  5  6  1  0  0  0  0
  6  7  1  0  0  0  0
  7  8  1  0  0  0  0
  8  9  1  0  0  0  0
  9 10  1  0  0  0  0
 10 11  1  0  0  0  0
 11 12  1  0  0  0  0
 12 13  1  0  0  0  0
  1 14  1  0  0  0  0
  1 15  1  0  0  0  0
  1 16  1  0  0  0  0
  2 17  1  0  0  0  0
  2 18  1  0  0  0  0
  3 19  1  0  0  0  0
  3 20  1  0  0  0  0
  4 21  1  0  0  0  0
  4 22  1  0  0  0  0
  5 23  1  0  0  0  0
  5 24  1  0  0  0  0
  6 25  1  0  0  0  0
  6 26  1  0  0  0  0
  7 27  1  0  0  0  0
  7 28  1  0  0  0  0
  8 29  1  0  0  0  0
  8 30  1  0  0  0  0
  9 31  1  0  0  0  0
  9 32  1  0  0  0  0
 10 33  1  0  0  0  0
 10 34  1  0  0  0  0
 11 35  1  0  0  0  0
 11 36  1  0  0  0  0
 12 37  1  0  0  0  0
 12 38  1  0  0  0  0
 13 39  1  0  0  0  0
 13 40  1  0  0  0  0
 13 41  1  0  0  0  0
M  CHG  1   1   1
M  END
