 xtb: 6.5.1 (fef0646)
          02032320113D

 26 26  0     0  0            999 V2000
   -4.6266   -1.0244    0.1105 N   0  0  0  0  0  0  0  0  0  0  0  0
   -4.5790    0.3060   -0.5614 C   0  0  0  0  0  0  0  0  0  0  0  0
   -3.6937    1.3119    0.1782 C   0  0  0  0  0  0  0  0  0  0  0  0
   -2.2357    1.0043    0.1132 C   0  0  0  0  0  0  0  0  0  0  0  0
   -1.2371    1.9251    0.0853 C   0  0  0  0  0  0  0  0  0  0  0  0
    0.0694    1.3659    0.0441 C   0  0  0  0  0  0  0  0  0  0  0  0
    0.0915   -0.0002    0.0415 C   0  0  0  0  0  0  0  0  0  0  0  0
    1.2694   -0.8351    0.0066 C   0  0  0  0  0  0  0  0  0  0  0  0
    2.5629   -0.3966   -0.0308 C   0  0  0  0  0  0  0  0  0  0  0  0
    3.5227   -1.4428   -0.0596 C   0  0  0  0  0  0  0  0  0  0  0  0
    2.9711   -2.6772   -0.0441 C   0  0  0  0  0  0  0  0  0  0  0  0
    1.2463   -2.5826    0.0063 S   0  0  0  0  0  0  0  0  0  0  0  0
   -1.5472   -0.5920    0.0865 S   0  0  0  0  0  0  0  0  0  0  0  0
    3.1252    3.0499   -0.0376 Cl  0  0  0  0  0  0  0  0  0  0  0  0
   -5.1741   -1.7136   -0.4217 H   0  0  0  0  0  0  0  0  0  0  0  0
   -5.0312   -0.9482    1.0524 H   0  0  0  0  0  0  0  0  0  0  0  0
   -3.6688   -1.3842    0.2149 H   0  0  0  0  0  0  0  0  0  0  0  0
   -5.6001    0.6953   -0.6580 H   0  0  0  0  0  0  0  0  0  0  0  0
   -4.2103    0.1872   -1.5868 H   0  0  0  0  0  0  0  0  0  0  0  0
   -3.9964    1.3590    1.2295 H   0  0  0  0  0  0  0  0  0  0  0  0
   -3.8567    2.3200   -0.2212 H   0  0  0  0  0  0  0  0  0  0  0  0
   -1.4228    2.9881    0.0997 H   0  0  0  0  0  0  0  0  0  0  0  0
    0.9658    1.9659    0.0199 H   0  0  0  0  0  0  0  0  0  0  0  0
    2.8287    0.6489   -0.0378 H   0  0  0  0  0  0  0  0  0  0  0  0
    4.5875   -1.2659   -0.0909 H   0  0  0  0  0  0  0  0  0  0  0  0
    3.5153   -3.6023   -0.0601 H   0  0  0  0  0  0  0  0  0  0  0  0
  1  2  1  0  0  0  0
  2  3  1  0  0  0  0
  3  4  1  0  0  0  0
  4  5  2  0  0  0  0
  5  6  4  0  0  0  0
  6  7  2  0  0  0  0
  7  8  1  0  0  0  0
  8  9  2  0  0  0  0
  9 10  4  0  0  0  0
 10 11  2  0  0  0  0
  8 12  1  0  0  0  0
 11 12  1  0  0  0  0
  4 13  1  0  0  0  0
  7 13  1  0  0  0  0
  1 15  1  0  0  0  0
  1 16  1  0  0  0  0
  1 17  1  0  0  0  0
  2 18  1  0  0  0  0
  2 19  1  0  0  0  0
  3 20  1  0  0  0  0
  3 21  1  0  0  0  0
  5 22  1  0  0  0  0
  6 23  1  0  0  0  0
  9 24  1  0  0  0  0
 10 25  1  0  0  0  0
 11 26  1  0  0  0  0
M  END
