23
 xtb: 6.5.1 (fef0646)
N           -3.21199418891806       -1.45398894925744       -0.61842186753680
C           -2.00786336637244       -1.98000265840509        0.09561926265087
C           -0.84775446182173       -1.06005082242114       -0.01256099901819
C            0.42057386040095       -1.46666742621000        0.08518552275675
C            1.57530827307740       -0.56685768337199        0.00842104125166
C            2.77227122659354       -0.90425096493602        0.63913381660257
C            3.86426412181773       -0.06351730904537        0.57842398179765
C            3.78502787329228        1.12523279911016       -0.11978173592746
C            2.61084041396020        1.47074078129929       -0.76018994063268
C            1.51552057014421        0.63416907556047       -0.69721493379700
Cl          -3.38397935596500        1.74331644881024        0.35207634541870
H           -4.03981910847963       -2.10003598511047       -0.46580041677567
H           -3.05213649672949       -1.45909983973007       -1.64524330811711
H           -3.43774068753391       -0.54700660165757       -0.31380972450082
H           -1.72712569508937       -2.99722994623089       -0.30722059320007
H           -2.22474379914492       -2.15535277774628        1.14279146317978
H           -1.07362404707520       -0.04778949291571       -0.25360646958481
H            0.61725100112029       -2.48416747731250        0.37211140649049
H            2.83789640130640       -1.82965004564440        1.18294237407171
H            4.79472764887517       -0.35029724048339        1.04166656321799
H            4.64810795310285        1.76935403415080       -0.19619771098644
H            2.54419886067467        2.40261210820220       -1.29993939395372
H            0.59462356046189        0.92275686329107       -1.17327441784715
