22
 xtb: 6.5.1 (fef0646)
N           -4.13317725661284        0.34229934376108       -0.61545557172406
C           -3.25881872920619       -0.28668140540464        0.42373951985411
C           -1.85447961700981        0.19805627051120        0.35899220315033
C           -0.80705443777913       -0.64542080929546        0.19380777787950
C            0.56738388885079       -0.27527159419915        0.08565513408630
C            1.54934567546504       -1.28016707334220       -0.06740360673886
C            2.88138532764817       -0.95759209191630       -0.18235643141967
C            3.28342905090592        0.37036296753825       -0.15027566730154
C            2.34011637927835        1.37731866704597       -0.00022705285066
C            1.00432734016496        1.06848157618819        0.11800582419903
H           -3.69718807059311        0.21177874109819       -1.54857490409726
H           -4.26291505962158        1.34479035958992       -0.45029209230707
H           -5.06797784987536       -0.11625178851658       -0.63125315878959
H           -3.29343398365833       -1.36258709509015        0.34909192839995
H           -3.66505566101381       -0.03923871137262        1.42794064185928
H           -1.67843196527452        1.25147301390413        0.37630814272157
H           -1.02193989951622       -1.70828736080641        0.14491447724833
H            1.25001960982261       -2.31199061903762       -0.11840324465612
H            3.62126486726809       -1.72838587655698       -0.31557471319920
H            4.32710098952041        0.62942519567613       -0.23072737711928
H            2.65099830835882        2.40937072116335        0.05396837304239
H            0.28374947405034        1.85541936387926        0.25320779971399
