22
 xtb: 6.5.1 (fef0646)
N           -4.14178690818191        0.31432163758288       -0.62260841868292
C           -3.25513723140946       -0.26628663400757        0.43528528612692
C           -1.85176357930452        0.21298718890590        0.35215647320482
C           -0.80842288688353       -0.63693824987093        0.19344397436405
C            0.56751965872352       -0.27336356766521        0.08249884747893
C            1.54599829077765       -1.27997958504153       -0.08010184547656
C            2.87908398931191       -0.96044708691331       -0.19215992369168
C            3.28546630048093        0.36565569466681       -0.14670242197598
C            2.34549377119242        1.37410539661899        0.01357117128893
C            1.00876049791350        1.06845323306963        0.12816453010984
H           -3.69884847338486        0.19884635666628       -1.54874525891618
H           -4.27572095469804        1.33804016472900       -0.46105828326054
H           -5.06527656220104       -0.13733109925104       -0.63102930313637
H           -3.29159530447706       -1.35745074208635        0.36402930503491
H           -3.66397761803526       -0.02321492607051        1.42865482499010
H           -1.67703889874834        1.25590109289634        0.36942150500735
H           -1.02380001114571       -1.70567102526270        0.14805809340368
H            1.24797525883779       -2.31148472690164       -0.12563925022117
H            3.61977114277107       -1.72960624151078       -0.32086076654467
H            4.32799466208841        0.62714288718582       -0.22862325864265
H            2.65368230831919        2.40792528109542        0.06172014294298
H            0.28589213032703        1.85554987704387        0.25987666126366
