21
 xtb: 6.5.1 (fef0646)
N           -4.53626516080781        0.01066871466762        0.48386238601251
C           -3.04689943417989       -0.04539911771814        0.68636281359161
C           -2.24285846765656       -0.01515878378002       -0.62119890759133
C           -0.76627463253890       -0.00877542277576       -0.38059679155966
C           -0.08394133598992        1.19584261367082       -0.24796948074731
F           -0.75077728995640        2.34702730466973       -0.32253038483973
C            1.28782283845576        1.20911263534548       -0.00862864950836
F            1.93073172437512        2.36771225125466        0.11180605457371
C            1.98156399261292        0.01301835744735        0.11855801930247
F            3.29368216009577        0.02339612037989        0.34589564088142
C            1.30305166668016       -1.19409260713493        0.01341756158760
F            1.96144712336484       -2.34140038172329        0.14983787279486
C           -0.06814019187040       -1.20304733815340       -0.23175927245041
F           -0.71870072504020       -2.36376719658006       -0.29274959169377
H           -4.84020271011474        0.89720752614319        0.07166926504663
H           -5.02431887294355       -0.12595351879287        1.38651822040382
H           -4.81795681953294       -0.76883948678047       -0.14841598681091
H           -2.77273144464886       -0.89058826462819        1.28685640486434
H           -2.76297077343241        0.86974047350873        1.28403996924361
H           -2.50508279510067        0.84748192382997       -1.24025062309874
H           -2.49685506902101       -0.91127817816122       -1.21489089549202
