 xtb: 6.5.1 (fef0646)
          01242316593D

 21 21  0     0  0            999 V2000
   -4.5362   -0.0050    0.4842 N   0  0  0  0  0  0  0  0  0  0  0  0
   -3.0472    0.0045    0.6852 C   0  0  0  0  0  0  0  0  0  0  0  0
   -2.2429   -0.0245   -0.6208 C   0  0  0  0  0  0  0  0  0  0  0  0
   -0.7663   -0.0127   -0.3804 C   0  0  0  0  0  0  0  0  0  0  0  0
   -0.0864    1.1928   -0.2416 C   0  0  0  0  0  0  0  0  0  0  0  0
   -0.7554    2.3428   -0.3096 F   0  0  0  0  0  0  0  0  0  0  0  0
    1.2851    1.2073    0.0003 C   0  0  0  0  0  0  0  0  0  0  0  0
    1.9259    2.3661    0.1260 F   0  0  0  0  0  0  0  0  0  0  0  0
    1.9816    0.0118    0.1186 C   0  0  0  0  0  0  0  0  0  0  0  0
    3.2937    0.0235    0.3459 F   0  0  0  0  0  0  0  0  0  0  0  0
    1.3058   -1.1959    0.0045 C   0  0  0  0  0  0  0  0  0  0  0  0
    1.9662   -2.3430    0.1356 F   0  0  0  0  0  0  0  0  0  0  0  0
   -0.0657   -1.2060   -0.2381 C   0  0  0  0  0  0  0  0  0  0  0  0
   -0.7139   -2.3680   -0.3055 F   0  0  0  0  0  0  0  0  0  0  0  0
   -4.8320    0.8148   -0.0524 H   0  0  0  0  0  0  0  0  0  0  0  0
   -5.0248    0.0098    1.3840 H   0  0  0  0  0  0  0  0  0  0  0  0
   -4.8256   -0.8466   -0.0213 H   0  0  0  0  0  0  0  0  0  0  0  0
   -2.7651   -0.8597    1.3060 H   0  0  0  0  0  0  0  0  0  0  0  0
   -2.7709    0.8996    1.2635 H   0  0  0  0  0  0  0  0  0  0  0  0
   -2.5042    0.8391   -1.2486 H   0  0  0  0  0  0  0  0  0  0  0  0
   -2.4977   -0.9193   -1.2061 H   0  0  0  0  0  0  0  0  0  0  0  0
  1  2  1  0  0  0  0
  2  3  1  0  0  0  0
  3  4  1  0  0  0  0
  4  5  4  0  0  0  0
  5  6  1  0  0  0  0
  5  7  4  0  0  0  0
  7  8  1  0  0  0  0
  7  9  4  0  0  0  0
  9 10  1  0  0  0  0
  9 11  4  0  0  0  0
 11 12  1  0  0  0  0
  4 13  4  0  0  0  0
 11 13  4  0  0  0  0
 13 14  1  0  0  0  0
  1 15  1  0  0  0  0
  1 16  1  0  0  0  0
  1 17  1  0  0  0  0
  2 18  1  0  0  0  0
  2 19  1  0  0  0  0
  3 20  1  0  0  0  0
  3 21  1  0  0  0  0
M  CHG  1   1   1
M  END
