25

N          2.91848        0.43662        1.01235
C          2.48245       -0.73735        0.20717
C          3.04801       -0.64507       -1.21313
C          4.56025       -0.61767       -1.22995
C          5.25134        0.53843       -1.25294
C          6.75318        0.60918       -1.27331
C          7.41236       -0.71191       -1.66278
C          6.75418       -1.88655       -0.94874
C          5.25768       -1.96179       -1.25731
H          2.55651        0.40107        1.97235
H          2.61370        1.32099        0.58713
H          3.94706        0.46788        1.07003
H          1.38880       -0.72534        0.20007
H          2.83501       -1.62755        0.73674
H          2.65016        0.25095       -1.70643
H          2.68982       -1.49772       -1.80352
H          4.74016        1.49811       -1.27942
H          7.09091        0.91128       -0.27411
H          7.07257        1.39170       -1.96993
H          8.48063       -0.67554       -1.42194
H          7.33404       -0.85406       -2.74795
H          6.89793       -1.78207        0.13419
H          7.23906       -2.82432       -1.24459
H          4.78869       -2.64562       -0.54083
H          5.11646       -2.39901       -2.25461
