 xtb: 6.5.1 (fef0646)
          01242315523D

 25 25  0     0  0            999 V2000
    2.9149    0.4206    1.0120 N   0  0  0  0  0  0  0  0  0  0  0  0
    2.5360   -0.7608    0.2014 C   0  0  0  0  0  0  0  0  0  0  0  0
    3.0662   -0.5933   -1.2235 C   0  0  0  0  0  0  0  0  0  0  0  0
    4.5746   -0.5905   -1.2490 C   0  0  0  0  0  0  0  0  0  0  0  0
    5.2763    0.5376   -1.2562 C   0  0  0  0  0  0  0  0  0  0  0  0
    6.7721    0.6002   -1.2849 C   0  0  0  0  0  0  0  0  0  0  0  0
    7.3833   -0.7462   -1.6650 C   0  0  0  0  0  0  0  0  0  0  0  0
    6.7072   -1.8604   -0.8725 C   0  0  0  0  0  0  0  0  0  0  0  0
    5.2321   -1.9411   -1.2577 C   0  0  0  0  0  0  0  0  0  0  0  0
    2.7120    0.2733    2.0069 H   0  0  0  0  0  0  0  0  0  0  0  0
    2.4093    1.2534    0.6876 H   0  0  0  0  0  0  0  0  0  0  0  0
    3.9238    0.5901    0.8869 H   0  0  0  0  0  0  0  0  0  0  0  0
    1.4521   -0.8628    0.1880 H   0  0  0  0  0  0  0  0  0  0  0  0
    2.9672   -1.6540    0.6527 H   0  0  0  0  0  0  0  0  0  0  0  0
    2.6841    0.3325   -1.6533 H   0  0  0  0  0  0  0  0  0  0  0  0
    2.7010   -1.4200   -1.8316 H   0  0  0  0  0  0  0  0  0  0  0  0
    4.7782    1.4981   -1.2752 H   0  0  0  0  0  0  0  0  0  0  0  0
    7.1433    0.9052   -0.3005 H   0  0  0  0  0  0  0  0  0  0  0  0
    7.0911    1.3695   -1.9926 H   0  0  0  0  0  0  0  0  0  0  0  0
    8.4583   -0.7375   -1.4744 H   0  0  0  0  0  0  0  0  0  0  0  0
    7.2380   -0.9259   -2.7328 H   0  0  0  0  0  0  0  0  0  0  0  0
    6.8067   -1.6516    0.1946 H   0  0  0  0  0  0  0  0  0  0  0  0
    7.1971   -2.8157   -1.0709 H   0  0  0  0  0  0  0  0  0  0  0  0
    4.7097   -2.6252   -0.5859 H   0  0  0  0  0  0  0  0  0  0  0  0
    5.1449   -2.3606   -2.2654 H   0  0  0  0  0  0  0  0  0  0  0  0
  1  2  1  0  0  0  0
  2  3  1  0  0  0  0
  3  4  1  0  0  0  0
  4  5  2  0  0  0  0
  5  6  1  0  0  0  0
  6  7  1  0  0  0  0
  7  8  1  0  0  0  0
  4  9  1  0  0  0  0
  8  9  1  0  0  0  0
  1 10  1  0  0  0  0
  1 11  1  0  0  0  0
  1 12  1  0  0  0  0
  2 13  1  0  0  0  0
  2 14  1  0  0  0  0
  3 15  1  0  0  0  0
  3 16  1  0  0  0  0
  5 17  1  0  0  0  0
  6 18  1  0  0  0  0
  6 19  1  0  0  0  0
  7 20  1  0  0  0  0
  7 21  1  0  0  0  0
  8 22  1  0  0  0  0
  8 23  1  0  0  0  0
  9 24  1  0  0  0  0
  9 25  1  0  0  0  0
M  CHG  1   1   1
M  END
