 xtb: 6.5.1 (fef0646)
          01232318543D

 28 27  0     0  0            999 V2000
    1.1113    0.1446    0.1140 N   0  0  0  0  0  0  0  0  0  0  0  0
    2.4679   -0.2563    0.4858 C   0  0  0  0  0  0  0  0  0  0  0  0
    2.9474   -1.4345   -0.3678 C   0  0  0  0  0  0  0  0  0  0  0  0
    2.1861   -2.7215   -0.0436 C   0  0  0  0  0  0  0  0  0  0  0  0
    2.6790   -3.8739   -0.9151 C   0  0  0  0  0  0  0  0  0  0  0  0
    4.1816   -4.0914   -0.7091 C   0  0  0  0  0  0  0  0  0  0  0  0
    4.6920   -5.2589   -1.5418 C   0  0  0  0  0  0  0  0  0  0  0  0
    4.5482   -5.1343   -2.8709 O   0  0  0  0  0  0  0  0  0  0  0  0
    5.1964   -6.2360   -1.0682 O   0  0  0  0  0  0  0  0  0  0  0  0
    4.9506   -2.8051   -1.0322 C   0  0  0  0  0  0  0  0  0  0  0  0
    4.4465   -1.6593   -0.1598 C   0  0  0  0  0  0  0  0  0  0  0  0
    0.9250    0.4956   -2.7896 Cl  0  0  0  0  0  0  0  0  0  0  0  0
    0.8457    1.0058    0.5780 H   0  0  0  0  0  0  0  0  0  0  0  0
    0.4398   -0.5748    0.3612 H   0  0  0  0  0  0  0  0  0  0  0  0
    1.0206    0.3464   -1.4240 H   0  0  0  0  0  0  0  0  0  0  0  0
    2.5429   -0.5187    1.5507 H   0  0  0  0  0  0  0  0  0  0  0  0
    3.1196    0.6010    0.3019 H   0  0  0  0  0  0  0  0  0  0  0  0
    2.7690   -1.1753   -1.4151 H   0  0  0  0  0  0  0  0  0  0  0  0
    1.1187   -2.5828   -0.2222 H   0  0  0  0  0  0  0  0  0  0  0  0
    2.3282   -2.9753    1.0096 H   0  0  0  0  0  0  0  0  0  0  0  0
    2.4631   -3.6353   -1.9603 H   0  0  0  0  0  0  0  0  0  0  0  0
    2.1385   -4.7883   -0.6624 H   0  0  0  0  0  0  0  0  0  0  0  0
    4.3615   -4.3567    0.3371 H   0  0  0  0  0  0  0  0  0  0  0  0
    4.1256   -4.3008   -3.1193 H   0  0  0  0  0  0  0  0  0  0  0  0
    4.8175   -2.5319   -2.0828 H   0  0  0  0  0  0  0  0  0  0  0  0
    6.0171   -2.9626   -0.8599 H   0  0  0  0  0  0  0  0  0  0  0  0
    4.9931   -0.7478   -0.4076 H   0  0  0  0  0  0  0  0  0  0  0  0
    4.6381   -1.8904    0.8904 H   0  0  0  0  0  0  0  0  0  0  0  0
  1  2  1  0  0  0  0
  2  3  1  0  0  0  0
  3  4  1  0  0  0  0
  4  5  1  0  0  0  0
  5  6  1  0  0  0  0
  6  7  1  0  0  0  0
  7  8  1  0  0  0  0
  7  9  2  0  0  0  0
  6 10  1  0  0  0  0
  3 11  1  0  0  0  0
 10 11  1  0  0  0  0
  1 13  1  0  0  0  0
  1 14  1  0  0  0  0
 12 15  1  0  0  0  0
  2 16  1  0  0  0  0
  2 17  1  0  0  0  0
  3 18  1  0  0  0  0
  4 19  1  0  0  0  0
  4 20  1  0  0  0  0
  5 21  1  0  0  0  0
  5 22  1  0  0  0  0
  6 23  1  0  0  0  0
  8 24  1  0  0  0  0
 10 25  1  0  0  0  0
 10 26  1  0  0  0  0
 11 27  1  0  0  0  0
 11 28  1  0  0  0  0
M  END
