22
 xtb: 6.5.1 (fef0646)
N            2.01200093710067       -0.96043899378536        1.30504524481755
C            1.64385219796809       -2.11457019563850        0.42905432586139
C            0.89120472920387       -1.65401610813757       -0.81976152617585
C           -0.33683785202928       -0.85876306312772       -0.49332498285129
C           -0.26922897172815        0.52063648251255       -0.35452002437820
C           -1.38725433031863        1.25178836687766       -0.01246012968222
C           -2.59802825701590        0.61944063458740        0.20301693584673
F           -3.69825750266505        1.33817655303855        0.54203320929635
C           -2.67080287226093       -0.75519213972914        0.07393535838941
C           -1.55138425330032       -1.48816326290544       -0.26527841773692
Cl           3.12177357137672        1.45763546719507       -0.42019979650398
H            1.10524941833814       -0.64175916569781        1.77819151395570
H            2.44521301482402       -0.27710532552842        0.85918903550814
H            2.56435347744580       -1.35853251881439        2.14359983861575
H            0.99003324521268       -2.88990447900821        0.95249971492100
H            2.53174374609752       -2.69597643705673        0.14914048052949
H            0.62921623501140       -2.48289988087542       -1.47438499319242
H            1.58073827194651       -1.02203944201001       -1.40009631157432
H            0.67812233554531        1.02166562547851       -0.50820402656181
H           -1.34010470039829        2.32421720050911        0.08399275222043
H           -3.60848870109483       -1.24247831280065        0.25971047887297
H           -1.60272040387619       -2.56037105455021       -0.34179496001524
