39
1.229
N            6.33185  -2.53219   1.62960
C            7.36725  -1.67270   0.98926
C            6.95589  -1.22883  -0.41324
C            5.80679  -0.28169  -0.40425
C            5.89510   1.07916  -0.48986
C            4.65034   1.73974  -0.45850
C            3.57152   0.88958  -0.34466
C            2.19671   1.25949  -0.29766
C            1.68332   2.54788  -0.35150
C            0.29271   2.60975  -0.28942
C           -0.32580   1.36980  -0.18621
C           -1.71967   1.12255  -0.11131
C           -2.73203   2.07462  -0.12006
C           -4.01544   1.53839  -0.03758
C           -4.04724   0.15400   0.03789
C           -5.21932  -0.64828   0.12724
C           -5.25884  -2.02377   0.19850
C           -6.56419  -2.55076   0.27814
C           -7.53600  -1.59872   0.26968
S           -6.84794  -0.03010   0.16262
S           -2.42580  -0.46001   0.00597
S            0.88839   0.12903  -0.16359
S            4.14973  -0.75039  -0.26530
H            5.41341  -2.06852   1.58089
H            6.54305  -2.73113   2.62014
H            6.24307  -3.43475   1.13818
H            8.31978  -2.21663   0.96117
H            7.54505  -0.78827   1.61264
H            6.68704  -2.10651  -1.01085
H            7.80071  -0.76159  -0.93294
H            6.83751   1.59906  -0.57938
H            4.55127   2.81248  -0.52365
H            2.30730   3.42427  -0.43632
H           -0.25637   3.53803  -0.32229
H           -2.54067   3.13447  -0.18502
H           -4.91218   2.13929  -0.03301
H           -4.36837  -2.63395   0.19186
H           -6.77098  -3.61012   0.33926
H           -8.59331  -1.78436   0.32174
