39
 xtb: 6.5.1 (fef0646)
N            6.33220284000206       -2.54236692375594        1.60224486231674
C            7.36866414659559       -1.68263242065105        0.96527356325876
C            6.95371202177427       -1.22869829614987       -0.43300614958389
C            5.80583849403185       -0.28033897965832       -0.41427578469304
C            5.89379130879513        1.08019265294408       -0.50369508850548
C            4.64949275120066        1.74135702900146       -0.46229555204501
C            3.57135225303973        0.89209721296420       -0.33614707382822
C            2.19697359791429        1.26225808912057       -0.27995148975774
C            1.68406193703254        2.55149762067830       -0.31839571334871
C            0.29340644478996        2.61298637902648       -0.25730169702132
C           -0.32557532034391        1.37190193351083       -0.17016805860933
C           -1.71977250930097        1.12370947750363       -0.10479652060173
C           -2.73331376687246        2.07437768758209       -0.13316870337362
C           -4.01670856072751        1.53737890824458       -0.05582434083970
C           -4.04724555211799        0.15393374411441        0.03752595018221
C           -5.21861996149785       -0.64834940103720        0.13500049065936
C           -5.25488031876375       -2.02054649420470        0.27141790099475
C           -6.56042001425869       -2.54863568458401        0.34028392715302
C           -7.53581850046151       -1.60089378330809        0.25535994228020
S           -6.85244051291546       -0.03797144254901        0.04073370024067
S           -2.42399863001653       -0.45712881062325        0.04198212405974
S            0.88807158281234        0.13140239212601       -0.16049227313959
S            4.14995198931233       -0.74627403838144       -0.25074951472478
H            5.41406411976592       -2.06979438015780        1.57554781872732
H            6.54411442495163       -2.73610077733818        2.61212593577786
H            6.24128960986178       -3.43640466949827        1.12916255309099
H            8.31955339645359       -2.22051419703027        0.95214442654325
H            7.54713185293139       -0.79243814979717        1.60699758540617
H            6.68554210861412       -2.10526990937389       -1.01805492521414
H            7.79976602109784       -0.76094486462037       -0.93858461045411
H            6.83692773354595        1.59919886971038       -0.58632016087892
H            4.55096308944101        2.81287972390169       -0.52552937733041
H            2.30764960270321        3.42557885368391       -0.42305595749077
H           -0.25604917808538        3.53915732268657       -0.30942982128389
H           -2.54127300351232        3.13425171235016       -0.19209490966726
H           -4.91277125795942        2.13870122809720       -0.04232239442447
H           -4.36652317166693       -2.63213224574413        0.22845020925015
H           -6.76927567422235       -3.60888344141891        0.36974270856324
H           -8.59357990770197       -1.78552257658026        0.30917017703577
