 xtb: 6.5.1 (fef0646)
          01242310103D

 28 27  0     0  0            999 V2000
   -2.6914   -1.0293   -0.1252 N   0  0  0  0  0  0  0  0  0  0  0  0
   -1.2018   -1.1120   -0.1225 C   0  0  0  0  0  0  0  0  0  0  0  0
   -0.5659    0.1142   -0.7624 C   0  0  0  0  0  0  0  0  0  0  0  0
    0.9765    0.1102   -0.7713 C   0  0  0  0  0  0  0  0  0  0  0  0
    1.5721   -1.0634   -1.5840 C   0  0  0  0  0  0  0  0  0  0  0  0
    3.1062   -0.9649   -1.6535 C   0  0  0  0  0  0  0  0  0  0  0  0
    3.7210   -0.9218   -0.2427 C   0  0  0  0  0  0  0  0  0  0  0  0
    3.1206    0.2236    0.5920 C   0  0  0  0  0  0  0  0  0  0  0  0
    1.5874    0.1183    0.6504 C   0  0  0  0  0  0  0  0  0  0  0  0
   -3.5531    1.8785    1.5795 Cl  0  0  0  0  0  0  0  0  0  0  0  0
   -3.0584   -0.9609   -1.0900 H   0  0  0  0  0  0  0  0  0  0  0  0
   -3.0096   -0.1857    0.3842 H   0  0  0  0  0  0  0  0  0  0  0  0
   -3.1319   -1.8522    0.3216 H   0  0  0  0  0  0  0  0  0  0  0  0
   -0.8855   -2.0193   -0.6458 H   0  0  0  0  0  0  0  0  0  0  0  0
   -0.8460   -1.2271    0.9086 H   0  0  0  0  0  0  0  0  0  0  0  0
   -0.9229    1.0118   -0.2425 H   0  0  0  0  0  0  0  0  0  0  0  0
   -0.9356    0.2107   -1.7903 H   0  0  0  0  0  0  0  0  0  0  0  0
    1.3150    1.0380   -1.2639 H   0  0  0  0  0  0  0  0  0  0  0  0
    1.1259   -1.0997   -2.5865 H   0  0  0  0  0  0  0  0  0  0  0  0
    1.2935   -2.0078   -1.1031 H   0  0  0  0  0  0  0  0  0  0  0  0
    3.3875   -0.0561   -2.2006 H   0  0  0  0  0  0  0  0  0  0  0  0
    3.5240   -1.7975   -2.2368 H   0  0  0  0  0  0  0  0  0  0  0  0
    4.8148   -0.8318   -0.2974 H   0  0  0  0  0  0  0  0  0  0  0  0
    3.5327   -1.8769    0.2640 H   0  0  0  0  0  0  0  0  0  0  0  0
    3.4020    1.1855    0.1447 H   0  0  0  0  0  0  0  0  0  0  0  0
    3.5493    0.2363    1.6040 H   0  0  0  0  0  0  0  0  0  0  0  0
    1.1512    0.9285    1.2494 H   0  0  0  0  0  0  0  0  0  0  0  0
    1.3098   -0.8094    1.1634 H   0  0  0  0  0  0  0  0  0  0  0  0
  1  2  1  0  0  0  0
  2  3  1  0  0  0  0
  3  4  1  0  0  0  0
  4  5  1  0  0  0  0
  5  6  1  0  0  0  0
  6  7  1  0  0  0  0
  7  8  1  0  0  0  0
  4  9  1  0  0  0  0
  8  9  1  0  0  0  0
  1 11  1  0  0  0  0
  1 12  1  0  0  0  0
  1 13  1  0  0  0  0
  2 14  1  0  0  0  0
  2 15  1  0  0  0  0
  3 16  1  0  0  0  0
  3 17  1  0  0  0  0
  4 18  1  0  0  0  0
  5 19  1  0  0  0  0
  5 20  1  0  0  0  0
  6 21  1  0  0  0  0
  6 22  1  0  0  0  0
  7 23  1  0  0  0  0
  7 24  1  0  0  0  0
  8 25  1  0  0  0  0
  8 26  1  0  0  0  0
  9 27  1  0  0  0  0
  9 28  1  0  0  0  0
M  END
