18
2.998
N           -2.14249   0.28790  -0.24424
C           -1.56325  -1.06699  -0.47271
C           -0.06462  -1.12637  -0.18889
C            0.77157  -0.29601  -1.16141
C            2.25853  -0.36642  -0.85819
Br           2.71122   0.36331   0.87056
Cl          -5.63049   0.18642  -0.75641
H           -3.16826   0.29365  -0.38692
H           -1.73834   0.98200  -0.88682
H           -1.95809   0.60917   0.71541
H           -1.75635  -1.37908  -1.50562
H           -2.09378  -1.79296   0.15605
H            0.28411  -2.16606  -0.21334
H            0.12572  -0.78453   0.83429
H            0.44953   0.75095  -1.12228
H            0.57426  -0.62600  -2.18976
H            2.84805   0.18354  -1.59532
H            2.61116  -1.39941  -0.86912
