18
 xtb: 6.5.1 (fef0646)
N           -3.12212338004679       -2.25699274567548       -0.18080712835826
C           -1.71305998600682       -2.00343531825038       -0.60268650727814
C           -1.03643049970977       -0.92862475003173        0.23912861161448
C            0.43119913878651       -0.71589992020020       -0.14125237816875
C            1.10027750423706        0.39624971776365        0.64898438484577
Br           2.98857151510315        0.58175705155969        0.24125136760393
Cl          -4.72128970470519        1.04251431944298       -0.47498661348624
H           -3.66891081940577       -1.31137125341121       -0.26634046376250
H           -3.21699416380942       -2.51699597625609        0.78025830197151
H           -3.62345137851751       -2.89244333989037       -0.78973475986092
H           -1.67401976804742       -1.71620775544012       -1.65069970591877
H           -1.18106717375810       -2.94511713271133       -0.51523080962409
H           -1.09979486992862       -1.20884434961779        1.31275146667436
H           -1.58206945533008        0.01201279407308        0.17237175990082
H            0.49664576654246       -0.45850882780161       -1.19850825779030
H            0.98055530924608       -1.66327538225207       -0.03980025433486
H            1.08697608440250        0.10459652470619        1.75421055407313
H            0.61725877494227        1.31587193382675        0.57551560817763
