18
 xtb: 6.5.1 (fef0646)
N           -2.18618856252831        0.30903686112854       -0.29040604596929
C           -1.58025445951050       -1.05206050372172       -0.42777393363376
C           -0.08070346728482       -1.06710932083187       -0.13965398883293
C            0.73795124217803       -0.25594833959741       -1.14372880938457
C            2.23169473793187       -0.32447511598255       -0.87585108188718
Br           2.75571332742038        0.30863603153070        0.86554294150105
Cl          -5.59929435214655        0.14478872470870       -0.77699430136488
H           -3.18074765540285        0.29145673830255       -0.39700986072577
H           -1.75540443294625        0.97674485808081       -0.91424615691528
H           -1.96928255456517        0.63526498060333        0.69607678597629
H           -1.75976902681277       -1.39482098398952       -1.48687031979957
H           -2.09510149595566       -1.77960234808292        0.18248339470366
H            0.28585469320712       -2.14709176372773       -0.18666103057439
H            0.11841569511113       -0.75427981632218        0.84466221759356
H            0.44044164406028        0.76280032626722       -1.12050545103488
H            0.55862971766777       -0.62018363880607       -2.18178416134220
H            2.83449278420874        0.20351308949737       -1.59909730009449
H            2.60501982598264       -1.38675216220416       -0.88670639296682
