 xtb: 6.5.1 (fef0646)
          02032320383D

 18 16  0     0  0            999 V2000
   -2.1425    0.2879   -0.2442 N   0  0  0  0  0  0  0  0  0  0  0  0
   -1.5633   -1.0670   -0.4727 C   0  0  0  0  0  0  0  0  0  0  0  0
   -0.0646   -1.1264   -0.1889 C   0  0  0  0  0  0  0  0  0  0  0  0
    0.7716   -0.2960   -1.1614 C   0  0  0  0  0  0  0  0  0  0  0  0
    2.2585   -0.3664   -0.8582 C   0  0  0  0  0  0  0  0  0  0  0  0
    2.7112    0.3633    0.8705 Br  0  0  0  0  0  0  0  0  0  0  0  0
   -5.6305    0.1864   -0.7564 Cl  0  0  0  0  0  0  0  0  0  0  0  0
   -3.1683    0.2937   -0.3869 H   0  0  0  0  0  0  0  0  0  0  0  0
   -1.7383    0.9820   -0.8868 H   0  0  0  0  0  0  0  0  0  0  0  0
   -1.9581    0.6092    0.7154 H   0  0  0  0  0  0  0  0  0  0  0  0
   -1.7564   -1.3791   -1.5056 H   0  0  0  0  0  0  0  0  0  0  0  0
   -2.0938   -1.7929    0.1561 H   0  0  0  0  0  0  0  0  0  0  0  0
    0.2841   -2.1661   -0.2133 H   0  0  0  0  0  0  0  0  0  0  0  0
    0.1257   -0.7845    0.8343 H   0  0  0  0  0  0  0  0  0  0  0  0
    0.4495    0.7509   -1.1223 H   0  0  0  0  0  0  0  0  0  0  0  0
    0.5742   -0.6260   -2.1898 H   0  0  0  0  0  0  0  0  0  0  0  0
    2.8480    0.1835   -1.5953 H   0  0  0  0  0  0  0  0  0  0  0  0
    2.6111   -1.3994   -0.8691 H   0  0  0  0  0  0  0  0  0  0  0  0
  1  2  1  0  0  0  0
  2  3  1  0  0  0  0
  3  4  1  0  0  0  0
  4  5  1  0  0  0  0
  5  6  1  0  0  0  0
  1  8  1  0  0  0  0
  1  9  1  0  0  0  0
  1 10  1  0  0  0  0
  2 11  1  0  0  0  0
  2 12  1  0  0  0  0
  3 13  1  0  0  0  0
  3 14  1  0  0  0  0
  4 15  1  0  0  0  0
  4 16  1  0  0  0  0
  5 17  1  0  0  0  0
  5 18  1  0  0  0  0
M  END
