21
 xtb: 6.5.1 (fef0646)
N           -1.60571349537792       -1.62304616155975        0.41149870571882
C           -0.46092762204939       -2.27980425951627       -0.29827099323772
C            0.89694051559520       -1.74385762799521        0.15065492202618
C            1.06740062980808       -0.25320761003233       -0.13601642275653
C            2.43680586988903        0.29444524218328        0.26590020202429
C            2.56919571799297        1.78596430437016       -0.00541751591026
Cl          -1.87531111879556        1.52935576108865       -0.17987077470938
H           -1.68044423175625       -0.71186883666516        0.24954274536317
H           -1.47936089544383       -1.84877092497834        1.45058159828644
H           -2.48473613417587       -2.16905620550031        0.16486517818689
H           -0.56279344122986       -2.15181060787023       -1.37712426442546
H           -0.44725185218492       -3.41192755182425       -0.17483298906218
H            1.72768311316679       -2.30200116866417       -0.32825197745322
H            1.03389349152316       -1.93355879621030        1.22696169372729
H            0.27156270309422        0.29575872947663        0.38255034217578
H            0.88508654559321       -0.07580825695729       -1.20308170451146
H            3.21250021209802       -0.25895602685545       -0.25633423752204
H            2.59582362558682        0.09230358292728        1.33363993039241
H            2.41472420841318        2.00138188280636       -1.07128549886719
H            3.53071499299379        2.17408614828098        0.27988201360517
H            1.79783222150823        2.35549838427965        0.53445357437562
