19

N          1.85857        0.13795        0.19535
C          0.69605        0.14526       -0.69696
C         -0.08725       -1.15731       -0.55812
C         -1.26871       -0.81319        0.33656
C         -1.60567        0.61558       -0.05324
C         -0.25471        1.27736       -0.30237
Cl         1.75375        0.07953        3.06398
H          2.50687       -0.64582        0.08675
H          1.57936        0.04494        1.22014
H          2.39506        1.00912        0.22833
H          1.09093        0.27147       -1.70956
H          0.50122       -1.99076       -0.16040
H         -0.46039       -1.45940       -1.54366
H         -0.98138       -0.86457        1.39144
H         -2.11260       -1.49213        0.18315
H         -2.17913        1.13144        0.72201
H         -2.20067        0.62435       -0.97539
H          0.07770        1.80739        0.59741
H         -0.33466        2.02276       -1.09936
