 xtb: 6.5.1 (fef0646)
          01242315113D

 19 18  0     0  0            999 V2000
    1.8925    0.1358    0.1738 N   0  0  0  0  0  0  0  0  0  0  0  0
    0.7103    0.1520   -0.7208 C   0  0  0  0  0  0  0  0  0  0  0  0
   -0.0863   -1.1494   -0.5698 C   0  0  0  0  0  0  0  0  0  0  0  0
   -1.2156   -0.7911    0.3931 C   0  0  0  0  0  0  0  0  0  0  0  0
   -1.6023    0.6112   -0.0639 C   0  0  0  0  0  0  0  0  0  0  0  0
   -0.2464    1.2818   -0.3003 C   0  0  0  0  0  0  0  0  0  0  0  0
    1.3612   -0.0008    3.1837 Cl  0  0  0  0  0  0  0  0  0  0  0  0
    2.5102   -0.6513   -0.0385 H   0  0  0  0  0  0  0  0  0  0  0  0
    1.6048    0.0430    1.1826 H   0  0  0  0  0  0  0  0  0  0  0  0
    2.4206    1.0090    0.1041 H   0  0  0  0  0  0  0  0  0  0  0  0
    1.0666    0.2819   -1.7442 H   0  0  0  0  0  0  0  0  0  0  0  0
    0.5262   -1.9650   -0.1942 H   0  0  0  0  0  0  0  0  0  0  0  0
   -0.5064   -1.4428   -1.5309 H   0  0  0  0  0  0  0  0  0  0  0  0
   -0.8367   -0.7554    1.4157 H   0  0  0  0  0  0  0  0  0  0  0  0
   -2.0448   -1.4945    0.3557 H   0  0  0  0  0  0  0  0  0  0  0  0
   -2.2003    1.1425    0.6736 H   0  0  0  0  0  0  0  0  0  0  0  0
   -2.1704    0.5539   -0.9933 H   0  0  0  0  0  0  0  0  0  0  0  0
    0.0999    1.7083    0.6406 H   0  0  0  0  0  0  0  0  0  0  0  0
   -0.3089    2.0751   -1.0410 H   0  0  0  0  0  0  0  0  0  0  0  0
  1  2  1  0  0  0  0
  2  3  1  0  0  0  0
  3  4  1  0  0  0  0
  4  5  1  0  0  0  0
  2  6  1  0  0  0  0
  5  6  1  0  0  0  0
  1  8  1  0  0  0  0
  1  9  1  0  0  0  0
  1 10  1  0  0  0  0
  2 11  1  0  0  0  0
  3 12  1  0  0  0  0
  3 13  1  0  0  0  0
  4 14  1  0  0  0  0
  4 15  1  0  0  0  0
  5 16  1  0  0  0  0
  5 17  1  0  0  0  0
  6 18  1  0  0  0  0
  6 19  1  0  0  0  0
M  END
