40
0.646
N           -4.07927   0.72282  -1.04850
C           -2.83748  -0.01840  -1.41943
C           -1.66681   0.31256  -0.49961
C           -1.87356  -0.15402   0.93810
C           -0.69037   0.17298   1.84573
N            0.58182  -0.35032   1.33552
C            1.05612  -1.73640   1.59417
C            2.25875  -1.89719   0.57988
C            2.02010  -2.90896  -0.50232
C            0.94740  -3.69812  -0.54464
C           -0.07158  -3.65194   0.47698
C           -0.02544  -2.76962   1.47092
C            1.42769   0.34453   0.45546
C            2.44781  -0.50650   0.00752
C            3.40914  -0.04116  -0.86443
C            3.35352   1.27606  -1.29018
C            2.34511   2.11975  -0.84892
C            1.37817   1.66577   0.02407
Cl          -2.91289   3.99630  -0.55988
H           -3.87601   1.73105  -0.96593
H           -4.44494   0.41035  -0.13826
H           -4.82876   0.60269  -1.74521
H           -2.57448   0.21791  -2.45815
H           -3.03099  -1.09724  -1.40402
H           -1.49267   1.39422  -0.50919
H           -0.74411  -0.13298  -0.89061
H           -2.05109  -1.23479   0.93726
H           -2.78999   0.28793   1.34553
H           -0.84472  -0.22455   2.85353
H           -0.58957   1.25594   1.96255
H            1.44479  -1.74973   2.62411
H            3.16590  -2.18099   1.13317
H            2.74736  -2.96301  -1.29713
H            0.82768  -4.39610  -1.35799
H           -0.88053  -4.36315   0.42861
H           -0.79725  -2.77696   2.22328
H            4.18600  -0.70325  -1.20731
H            4.10091   1.64751  -1.97258
H            2.31691   3.14191  -1.19085
H            0.59842   2.31908   0.37313
