40
 xtb: 6.5.1 (fef0646)
N           -4.13240330941891        0.56343185891197       -1.05921686234108
C           -2.82444402936622       -0.06607095712417       -1.42879920331140
C           -1.68209570808227        0.32932548287556       -0.49718848024019
C           -1.87625552528063       -0.15672304772166        0.93606534775415
C           -0.69276522809860        0.17216579620689        1.84330708218883
N            0.57893044694696       -0.35127714613796        1.33327810520736
C            1.05510930476883       -1.73663508376000        1.59391922123160
C            2.25783679044155       -1.89725543835557        0.57988979746276
C            2.01940490833878       -2.90869455987029       -0.50260812010181
C            0.94595421632904       -3.69685815141804       -0.54639899466099
C           -0.07281073361362       -3.65148250884774        0.47540537910877
C           -0.02566737220442       -2.77076771112535        1.47081841200410
C            1.42595508517259        0.34445580585997        0.45389547481214
C            2.44681015516492       -0.50638736802190        0.00757427901013
C            3.40910951718477       -0.04113147762208       -0.86340557895287
C            3.35415466016023        1.27624577188140       -1.28844525206117
C            2.34477041037978        2.11966221172242       -0.84868320668081
C            1.37604067535586        1.66561299687766        0.02239164117573
Cl          -2.85847547838752        4.14367805346154       -0.53962665948753
H           -3.92133621253750        1.69015691060979       -0.98685778815910
H           -4.44224773199189        0.37036774655598       -0.13301257378666
H           -4.84541790754172        0.52873643479763       -1.74070004418261
H           -2.57479472135711        0.21283293812987       -2.45978610409042
H           -3.00619496660622       -1.11496022134324       -1.41041290026794
H           -1.51226387199331        1.40167391936376       -0.50683304511004
H           -0.74136941006893       -0.11476636323665       -0.88843916662812
H           -2.04762441245457       -1.23633349475689        0.93326430180234
H           -2.79172519038332        0.28249005786707        1.34815077867208
H           -0.84563477201245       -0.22465368891568        2.85283262249873
H           -0.59064625763414        1.25575702481730        1.96160084804861
H            1.44435292566634       -1.74946633699308        2.62405791111467
H            3.16561394885842       -2.18100481903386        1.13315712750506
H            2.74735184881680       -2.96319922175651       -1.29700597669805
H            0.82713618425292       -4.39546800397975       -1.35872767179754
H           -0.88095220210825       -4.36300465842977        0.42800666536642
H           -0.79699827064710       -2.77786633261108        2.22360978652417
H            4.18607867166930       -0.70332509628614       -1.20671267914930
H            4.10149336737016        1.64763724222919       -1.97159472059282
H            2.31692049605416        3.14191308946036       -1.19058877255652
H            0.59740510068728        2.31890906130383        0.37185947060173
