  25

 N          3.1684685195        1.4692129835        2.2174677661
 C          2.4927705903        0.1553507782        2.4281014141
 C          2.9277691191       -0.7800580541        1.2961279979
 C          4.4333203771       -0.8355601475        1.2712334726
 C          5.1297659041       -1.7559442334        2.0424660159
 C          6.5107412493       -1.7493956683        2.0958749610
 C          7.2385203001       -0.7971725191        1.3782934560
 O          8.5752440265       -0.6852610766        1.3690733061
 C          9.3570875309       -1.6141279319        2.0926061963
 C          6.5424826083        0.1284717850        0.5926671446
 C          5.1630671244        0.1125604839        0.5448002012
 H          3.2419521394        2.0211830839        3.0765579492
 H          2.6792576396        2.0229035414        1.5059468579
 H          4.1258095823        1.2209984514        1.8392989664
 H          1.4120895750        0.2904053510        2.4522756041
 H          2.8233627137       -0.2502318548        3.3848243525
 H          2.5394896378       -0.4201402741        0.3423742235
 H          2.5099824382       -1.7688203387        1.4764561691
 H          4.5855957328       -2.5026594323        2.6009606516
 H          7.0144892944       -2.4925349436        2.6915357028
 H         10.3906508521       -1.3286942683        1.9093874547
 H          9.1944557244       -2.6345384922        1.7362967531
 H          9.1510894678       -1.5590446605        3.1652259679
 H          7.1117156397        0.8396417085        0.0167097768
 H          4.6613722131        0.7808457286       -0.1446423612
