 xtb: 6.5.1 (fef0646)
          01232319063D

 22 21  0     0  0            999 V2000
    1.2435   -0.4112    0.1380 N   0  0  0  0  0  0  0  0  0  0  0  0
    2.6878   -0.2555    0.0170 C   0  0  0  0  0  0  0  0  0  0  0  0
    3.1231    1.0059    0.7787 C   0  0  0  0  0  0  0  0  0  0  0  0
    4.6091    1.1908    0.7211 C   0  0  0  0  0  0  0  0  0  0  0  0
    5.2318    1.6746   -0.4263 C   0  0  0  0  0  0  0  0  0  0  0  0
    4.4833    1.9902   -1.4865 F   0  0  0  0  0  0  0  0  0  0  0  0
    6.6105    1.8397   -0.5034 C   0  0  0  0  0  0  0  0  0  0  0  0
    7.1737    2.3058   -1.6187 F   0  0  0  0  0  0  0  0  0  0  0  0
    7.4054    1.5117    0.5915 C   0  0  0  0  0  0  0  0  0  0  0  0
    8.7276    1.6633    0.5296 F   0  0  0  0  0  0  0  0  0  0  0  0
    6.8100    1.0208    1.7489 C   0  0  0  0  0  0  0  0  0  0  0  0
    7.5620    0.6985    2.8024 F   0  0  0  0  0  0  0  0  0  0  0  0
    5.4284    0.8641    1.7967 C   0  0  0  0  0  0  0  0  0  0  0  0
    4.8745    0.3830    2.9163 F   0  0  0  0  0  0  0  0  0  0  0  0
   -0.0815    2.1242   -0.6351 Cl  0  0  0  0  0  0  0  0  0  0  0  0
    0.9046   -1.1653   -0.4482 H   0  0  0  0  0  0  0  0  0  0  0  0
    0.5130    0.9526   -0.3013 H   0  0  0  0  0  0  0  0  0  0  0  0
    0.9779   -0.6002    1.0991 H   0  0  0  0  0  0  0  0  0  0  0  0
    2.9238   -0.1401   -1.0427 H   0  0  0  0  0  0  0  0  0  0  0  0
    3.2400   -1.1244    0.4040 H   0  0  0  0  0  0  0  0  0  0  0  0
    2.8073    0.9236    1.8188 H   0  0  0  0  0  0  0  0  0  0  0  0
    2.6242    1.8639    0.3272 H   0  0  0  0  0  0  0  0  0  0  0  0
  1  2  1  0  0  0  0
  2  3  1  0  0  0  0
  3  4  1  0  0  0  0
  4  5  4  0  0  0  0
  5  6  1  0  0  0  0
  5  7  4  0  0  0  0
  7  8  1  0  0  0  0
  7  9  4  0  0  0  0
  9 10  1  0  0  0  0
  9 11  4  0  0  0  0
 11 12  1  0  0  0  0
  4 13  4  0  0  0  0
 11 13  4  0  0  0  0
 13 14  1  0  0  0  0
  1 16  1  0  0  0  0
 15 17  1  0  0  0  0
  1 18  1  0  0  0  0
  2 19  1  0  0  0  0
  2 20  1  0  0  0  0
  3 21  1  0  0  0  0
  3 22  1  0  0  0  0
M  END
