 xtb: 6.5.1 (fef0646)
          01242315273D

 22 21  0     0  0            999 V2000
    0.9964   -0.0812   -0.2682 N   0  0  0  0  0  0  0  0  0  0  0  0
    2.4686   -0.1162   -0.2882 C   0  0  0  0  0  0  0  0  0  0  0  0
    2.9947    1.0586    0.5452 C   0  0  0  0  0  0  0  0  0  0  0  0
    4.4784    1.0092    0.7363 C   0  0  0  0  0  0  0  0  0  0  0  0
    5.3308    1.9112    0.1044 C   0  0  0  0  0  0  0  0  0  0  0  0
    4.8128    2.8381   -0.7134 F   0  0  0  0  0  0  0  0  0  0  0  0
    6.7080    1.8904    0.2921 C   0  0  0  0  0  0  0  0  0  0  0  0
    7.4903    2.7812   -0.3339 F   0  0  0  0  0  0  0  0  0  0  0  0
    7.2730    0.9402    1.1331 C   0  0  0  0  0  0  0  0  0  0  0  0
    8.5982    0.9102    1.3263 F   0  0  0  0  0  0  0  0  0  0  0  0
    6.4497    0.0211    1.7734 C   0  0  0  0  0  0  0  0  0  0  0  0
    6.9858   -0.8999    2.5877 F   0  0  0  0  0  0  0  0  0  0  0  0
    5.0763    0.0644    1.5683 C   0  0  0  0  0  0  0  0  0  0  0  0
    4.3088   -0.8351    2.1961 F   0  0  0  0  0  0  0  0  0  0  0  0
    0.2377    0.1708    2.6726 Cl  0  0  0  0  0  0  0  0  0  0  0  0
    0.5946   -0.9114   -0.7094 H   0  0  0  0  0  0  0  0  0  0  0  0
    0.6401    0.7612   -0.7266 H   0  0  0  0  0  0  0  0  0  0  0  0
    0.6673   -0.0482    0.7336 H   0  0  0  0  0  0  0  0  0  0  0  0
    2.8319   -0.0479   -1.3142 H   0  0  0  0  0  0  0  0  0  0  0  0
    2.8013   -1.0539    0.1560 H   0  0  0  0  0  0  0  0  0  0  0  0
    2.5072    1.0040    1.5225 H   0  0  0  0  0  0  0  0  0  0  0  0
    2.7297    2.0027    0.0726 H   0  0  0  0  0  0  0  0  0  0  0  0
  1  2  1  0  0  0  0
  2  3  1  0  0  0  0
  3  4  1  0  0  0  0
  4  5  4  0  0  0  0
  5  6  1  0  0  0  0
  5  7  4  0  0  0  0
  7  8  1  0  0  0  0
  7  9  4  0  0  0  0
  9 10  1  0  0  0  0
  9 11  4  0  0  0  0
 11 12  1  0  0  0  0
  4 13  4  0  0  0  0
 11 13  4  0  0  0  0
 13 14  1  0  0  0  0
  1 16  1  0  0  0  0
  1 17  1  0  0  0  0
  1 18  1  0  0  0  0
  2 19  1  0  0  0  0
  2 20  1  0  0  0  0
  3 21  1  0  0  0  0
  3 22  1  0  0  0  0
M  END
