16
2.043
N           -0.47055  -0.62733  -0.63006
C            0.40020  -0.74403   0.57234
C            1.87357  -0.78150   0.20654
S            2.43062   0.66003  -0.70359
C            2.30727   1.86385   0.59065
Cl          -3.84019  -0.47789   0.34023
H           -0.23999   0.22476  -1.16378
H           -1.47156  -0.58303  -0.37911
H           -0.33702  -1.42987  -1.25984
H            0.12485  -1.64269   1.13935
H            0.20390   0.09640   1.24800
H            2.07761  -1.65193  -0.42167
H            2.50236  -0.88898   1.09443
H            2.71877   2.81201   0.25202
H            2.86379   1.54075   1.46748
H            1.26924   2.02423   0.87125
