16
2.604
N           -0.53393  -2.05619   0.49033
C            0.67087  -1.18670   0.62881
C            0.89966  -0.32412  -0.59893
S            2.36261   0.71281  -0.50283
C            1.77275   1.90108   0.67231
Cl          -3.21752   0.12991  -0.09560
H           -1.37524  -1.47724   0.32899
H           -0.69862  -2.62756   1.32986
H           -0.43948  -2.69080  -0.31322
H            1.55812  -1.80356   0.81550
H            0.56567  -0.55289   1.51668
H            0.03307   0.31385  -0.78693
H            1.00477  -0.95691  -1.48329
H            0.84291   2.34868   0.32889
H            2.50916   2.69163   0.79825
H            1.60300   1.43578   1.64017
