25
 xtb: 6.5.1 (fef0646)
N           -3.10294130941647        0.61530365410329        0.88350379256464
C           -1.99473252398616        1.56027089956652        1.21421350040604
C           -0.68235043924382        1.03334548820853        0.72655480612913
C           -0.26796613859507        1.29822043263794       -0.59167188873326
C            0.88591871076907        0.76578392950488       -1.08815458276570
C            0.08644842210962        0.22163946390385        1.51822804369045
C            1.29005441398496       -0.34379450247310        1.03934718886668
C            1.69476808615967       -0.07059590868602       -0.28783684538630
C            2.89133946428721       -0.64571311819133       -0.77127783245475
C            3.64723787737362       -1.45325178249289        0.02847252156943
C            3.24782645907908       -1.72268317868378        1.34291170761836
C            2.09690652157214       -1.18275696705957        1.84034945582848
Cl          -3.11663712828984       -0.10430871587164       -2.17767573086062
H           -4.00964936832859        1.01726311372902        1.30067890632429
H           -2.94165392805245       -0.25327990515162        1.50902575012616
H           -3.16214602111223        0.39977613627056       -0.00948384178254
H           -1.89273447492867        1.80834123309752        2.30970262197551
H           -2.18689893586662        2.54259437248938        0.75088407951724
H           -0.88889823666535        1.92872779909117       -1.20625439511261
H            1.18402797710498        0.97279554438805       -2.09857674019855
H           -0.23070278626348        0.00069024934588        2.52720350437910
H            3.19735217148778       -0.43273242672123       -1.78196147541512
H            4.55967861951983       -1.88152941795373       -0.35230010520909
H            3.85530293122355       -2.36390110538010        1.96143146281009
H            1.78737390188302       -1.39846035381581        2.85052869769328
