  18

 N         -2.5304918887       -0.8934955268       -0.5593462389
 C         -2.3260747215        0.5703514424       -0.3609079892
 C         -1.2837213709        0.8852659822        0.7136240906
 C          0.1030329760        0.5225051695        0.3186561328
 C          1.0635074015        1.3840873576       -0.1941249888
 C          2.2912445176        0.7693461660       -0.4636411593
 C          2.3070167969       -0.5800933876       -0.1739877468
 S          0.7769749247       -1.0700110266        0.4273223405
 H         -3.2049702502       -1.0886249211       -1.3147948928
 H         -2.8888313219       -1.3380767432        0.2986553875
 H         -1.6422197946       -1.3599185390       -0.8020651334
 H         -3.2899047023        1.0286007686       -0.1037970938
 H         -2.0224846776        1.0264281440       -1.3107746211
 H         -1.5383018092        0.3526594663        1.6361404890
 H         -1.3111755050        1.9500732056        0.9721148264
 H          0.8823286186        2.4363208512       -0.3547255716
 H          3.1477478573        1.3008432072       -0.8556244472
 H          3.1467351207       -1.2391031685       -0.3020678322
          18
        -23.65660200
 N         -2.6489682644        0.7987450722       -0.1960884955
 C         -2.3193306935       -0.4903120603        0.4818726999
 C         -1.2077184080       -1.2809080466       -0.2160702712
 C          0.1413083517       -0.6646313544       -0.0963020766
 C          1.3565769503       -1.3363839022       -0.0484607915
 C          2.4707816564       -0.4935465124        0.0532449142
 C          2.1493566216        0.8494404497        0.0853604823
 S          0.4476440743        1.0352826480       -0.0125988153
 H         -3.3979504421        1.3080242757        0.2967473012
 H         -2.9684085503        0.6376505376       -1.1624673803
 H         -1.8287485952        1.4213293664       -0.2405987532
 H         -3.2327436577       -1.0963683003        0.5409183333
 H         -2.0285309393       -0.2897931915        1.5201193754
 H         -1.4520754699       -1.3919444558       -1.2777972352
 H         -1.1637146040       -2.2994390640        0.1867923443
 H          1.4338543697       -2.4128461862       -0.0924012772
 H          3.4877968348       -0.8590245588        0.1002844699
 H          2.8477532257        1.6633646214        0.1600281519
