  18

 N          2.8795769670       -0.6935376510       -1.2103735981
 C          2.5064256409        0.0997711966       -0.0051766718
 C          3.0006286480       -0.6253120905        1.2490153725
 C          4.4916573238       -0.7159593127        1.2702139464
 C          5.3832878239        0.0363895066        1.9631438244
 C          6.7318330483       -0.2996891936        1.6863182430
 C          6.8586241889       -1.2936773897        0.7782278107
 S          5.3276551278       -1.8806415373        0.2556712690
 H          2.7706828987       -0.1577478099       -2.0771939635
 H          2.3098440922       -1.5452940906       -1.2709663385
 H          3.8793752170       -0.9942966900       -1.0900447219
 H          1.4244688404        0.2298673274        0.0239649265
 H          2.9809693343        1.0795689586       -0.0761589507
 H          2.5574645375       -1.6220630204        1.2985228995
 H          2.6666548501       -0.0689651849        2.1250139110
 H          5.0990229222        0.8053893166        2.6583215410
 H          7.5711255370        0.1836269770        2.1509856213
 H          7.7458630021       -1.7474793120        0.3849748792
