  49

 N          3.5232105210        0.8097950096        1.2925869822
 C          2.7279797994        1.3000690804        0.1327124079
 C          3.5633997549        2.3248973150       -0.6423897937
 C          4.8060436794        1.6956745690       -1.1782199471
 C          5.0609646169        1.2214489362       -2.4261720453
 C          6.3135417136        0.5924755542       -2.5499761191
 C          7.0425387995        0.5583384829       -1.3900975023
 C          8.3182602817       -0.0065537799       -1.1465264509
 C          9.0564892813        0.0155391883        0.0152323008
 C         10.2845359101       -0.6496576301       -0.0767408067
 C         11.2336305374       -0.6845382883        1.0762250399
 C         10.4913355683       -1.2017191643       -1.3347606708
 C         11.5815167418       -1.9835057305       -1.8527092545
 C         12.5603806205       -2.6096011959       -1.0945309749
 C         13.5920579284       -3.3650134432       -1.6546331731
 C         13.7359064528       -3.5666441361       -3.0192530433
 C         14.7879826359       -4.3424696376       -3.6169801124
 C         15.5165003327       -5.3984212825       -3.1016845481
 C         15.3171579820       -6.0448117404       -1.7704863014
 C         16.4747843675       -5.8748933714       -4.0213459637
 C         16.4764478932       -5.1972540036       -5.2003508027
 S         15.2857296773       -3.9714118929       -5.2471443446
 C         12.7567238616       -2.9372492925       -3.8333226099
 N         12.6646086402       -2.9856290810       -5.1599977848
 S         11.3792394222       -2.1597936355       -5.6373731558
 N         10.8597938127       -1.6975509975       -4.1815343446
 C         11.6883258164       -2.1749222518       -3.2551556667
 S          9.1714667629       -0.8485681400       -2.4092616662
 S          6.1695779863        1.3704922089       -0.1065649402
 H          3.1319282035       -0.0423838706        1.7035095515
 H          3.5884838229        1.5343476111        2.0156397547
 H          4.5080364190        0.6376401597        0.9381764565
 H          1.7953346575        1.7395515416        0.4864002183
 H          2.5012300753        0.4503414428       -0.5124075212
 H          3.8074790842        3.1681897609        0.0067879623
 H          2.9673381549        2.7020923734       -1.4730819770
 H          4.3711200085        1.3225632963       -3.2447407668
 H          6.6879742319        0.1706194269       -3.4641050329
 H          8.7231500483        0.5120180682        0.9122895270
 H         10.9351900902        0.0547504873        1.8161206506
 H         12.2477002284       -0.4598941189        0.7520563029
 H         11.2288083172       -1.6624054036        1.5581578705
 H         12.5312621021       -2.5374982808       -0.0216844013
 H         14.3228219632       -3.7840010889       -0.9839161654
 H         14.2678068692       -6.0372281369       -1.4829035714
 H         15.8938373546       -5.5315864589       -1.0000672006
 H         15.6628561906       -7.0752404069       -1.8111574681
 H         17.1367714738       -6.6946274508       -3.8057071014
 H         17.1065093066       -5.3572506016       -6.0526317962
