22
1.99
N            1.38189   1.44228  -0.77578
C            0.29038   1.65696   0.22835
C           -0.27455   3.06916   0.10874
C           -0.75289   0.56561   0.11419
C           -2.04158   0.80420  -0.34456
C           -2.95938  -0.22323  -0.44403
C           -2.60145  -1.50827  -0.09171
C           -1.32127  -1.76369   0.35436
C           -0.40618  -0.73467   0.45210
Cl           3.02436  -1.53710   0.23052
H            1.85808   0.54136  -0.61692
H            2.08841   2.18890  -0.72882
H            0.98994   1.43170  -1.72914
H            0.73755   1.55803   1.23137
H            0.49655   3.82079   0.28041
H           -1.07578   3.24319   0.82797
H           -0.67406   3.24203  -0.88993
H           -2.33244   1.80080  -0.62849
H           -3.95744  -0.02088  -0.79853
H           -3.31800  -2.31034  -0.16900
H           -1.03372  -2.76775   0.62229
H            0.60085  -0.94117   0.77321
