  17

 N         -4.6643022123       -0.0510732743        0.0005977162
 C         -3.3110356296        0.5840599838       -0.0002216457
 C         -2.1756822808       -0.4351463518       -0.0003535298
 C         -0.7790158580        0.2020216313       -0.0005493434
 C          0.3520654331       -0.8082660502       -0.0001855667
 Br         2.0511595019        0.0780959663       -0.0002682742
 H         -5.4160769925        0.6541419779        0.0006891758
 H         -4.7962583711       -0.6450452047        0.8317661107
 H         -4.7969917044       -0.6456209351       -0.8300400052
 H         -3.2210962696        1.2411894273        0.8730844494
 H         -3.2218383820        1.2406216083       -0.8740312685
 H         -2.2789697389       -1.0930743588       -0.8698975371
 H         -2.2787335395       -1.0929752556        0.8692904100
 H         -0.6745111712        0.8616961167        0.8697723404
 H         -0.6744872530        0.8611435747       -0.8712860918
 H          0.3163263339       -1.4529355985       -0.8799411691
 H          0.3161842750       -1.4524518741        0.8799200606
          17
        -20.74482643
 N         -1.3961350456        1.6178207277       -0.4302212143
 C         -2.1874252283        0.7130245596        0.4540530480
 C         -2.2615318704       -0.7314641575       -0.0469821174
 C         -1.0263816868       -1.6043631133        0.2425898919
 C          0.2107120435       -1.2949757355       -0.5898395215
 Br         1.2297507640        0.1797934557        0.0852477683
 H         -1.3954797054        2.5878547370       -0.0803508132
 H         -1.7776669644        1.6366433922       -1.3873135142
 H         -0.4042617017        1.3074066092       -0.4852785097
 H         -3.1996378764        1.1306717666        0.5423251515
 H         -1.7742738800        0.7359143109        1.4695023729
 H         -2.4596353283       -0.7278802445       -1.1242012728
 H         -3.1421702722       -1.2130591370        0.3995293916
 H         -1.2983966601       -2.6583232870        0.0865118831
 H         -0.7695071910       -1.5342417504        1.3064382323
 H         -0.0442948593       -1.0977861954       -1.6321701938
 H          0.9132771080       -2.1327810579       -0.5873747485
