  17

 N          1.0505020190       -0.0353288147        0.0714035749
 C          2.5475240005       -0.0300220393        0.0341623479
 C          3.0517253909        0.1256853919       -1.3937683113
 C          4.5840327888        0.1283859185       -1.4164054684
 C          5.1196834647        0.2818046117       -2.8322956167
 Br         7.0831025549        0.2785511085       -2.8016899574
 H          0.7013974510       -0.1401638243        1.0327200579
 H          0.6880269441       -0.8119093772       -0.4981373206
 H          0.6866060719        0.8449029333       -0.3179754153
 H          2.9061323714       -0.9673397876        0.4621915886
 H          2.9046858708        0.7939162057        0.6537835802
 H          2.6882346216        1.0627419091       -1.8206603254
 H          2.6885553685       -0.6975928449       -2.0124546562
 H          4.9610133265       -0.8042747239       -0.9932397159
 H          4.9607611384        0.9488969079       -0.8033253238
 H          4.8164391935        1.2266332546       -3.2808788253
 H          4.8165174233       -0.5450868294       -3.4727902129
