 xtb: 6.5.1 (fef0646)
          01232313483D

 13 12  0     0  0            999 V2000
    0.9148   -0.0646    0.0404 N   0  0  0  0  0  0  0  0  0  0  0  0
    2.3971    0.0429   -0.1042 C   0  0  0  0  0  0  0  0  0  0  0  0
    2.9384    0.7592    1.1349 C   0  0  0  0  0  0  0  0  0  0  0  0
    2.3799    0.1394    2.3248 C   0  0  0  0  0  0  0  0  0  0  0  0
    1.8211   -0.4074    3.2332 C   0  0  0  0  0  0  0  0  0  0  0  0
    0.5013   -0.7473   -0.6041 H   0  0  0  0  0  0  0  0  0  0  0  0
    0.4623    0.8467   -0.1021 H   0  0  0  0  0  0  0  0  0  0  0  0
    0.7608   -0.3528    1.0333 H   0  0  0  0  0  0  0  0  0  0  0  0
    2.6479    0.5804   -1.0182 H   0  0  0  0  0  0  0  0  0  0  0  0
    2.8070   -0.9670   -0.1582 H   0  0  0  0  0  0  0  0  0  0  0  0
    2.6782    1.8205    1.1218 H   0  0  0  0  0  0  0  0  0  0  0  0
    4.0263    0.6839    1.1602 H   0  0  0  0  0  0  0  0  0  0  0  0
    1.4125   -0.8597    4.0887 H   0  0  0  0  0  0  0  0  0  0  0  0
  1  2  1  0  0  0  0
  2  3  1  0  0  0  0
  3  4  1  0  0  0  0
  4  5  3  0  0  0  0
  1  6  1  0  0  0  0
  1  7  1  0  0  0  0
  1  8  1  0  0  0  0
  2  9  1  0  0  0  0
  2 10  1  0  0  0  0
  3 11  1  0  0  0  0
  3 12  1  0  0  0  0
  5 13  1  0  0  0  0
M  CHG  1   1   1
M  END
