25
0.0
N           -3.27635  -0.55102   1.27218
C           -3.26742   0.59729   0.31876
C           -2.43277   0.32194  -0.93104
C           -0.97689   0.11882  -0.63187
C           -0.16497   1.19842  -0.31858
C            1.16758   1.02494  -0.02473
C            1.73863  -0.24752  -0.03232
O            3.07342  -0.52933   0.24916
C            3.88028   0.58394   0.55011
C            0.91568  -1.32943  -0.34557
C           -0.41465  -1.14916  -0.63861
H           -3.82901  -0.33958   2.11048
H           -2.32169  -0.77893   1.57185
H           -3.67648  -1.38652   0.83093
H           -2.87987   1.48467   0.83159
H           -4.30038   0.83910   0.04065
H           -2.53387   1.14388  -1.64860
H           -2.82322  -0.56223  -1.44414
H           -0.58973   2.18814  -0.31149
H            1.77125   1.88253   0.21195
H            4.89000   0.21773   0.74195
H            3.50191   1.08054   1.44554
H            3.90082   1.26418  -0.30337
H            1.35451  -2.31245  -0.35282
H           -1.02912  -1.99867  -0.88371
