29

N          1.05790        0.02745       -0.04156
C          2.53806        0.01442       -0.05528
C          3.04870        0.90933        1.06071
C          4.57445        0.92393        1.08103
C          5.09896        1.82151        2.19755
C          6.62477        1.83507        2.21148
C          7.14760        2.73169        3.32918
C          8.67317        2.74870        3.35050
C          9.19153        3.64285        4.46325
H          0.67583       -0.57296       -0.78650
H          0.68430        0.97335       -0.19006
H          0.68402       -0.32018        0.85159
H          2.85238        0.37053       -1.04083
H          2.85090       -1.02496        0.07883
H          2.67088        0.55496        2.02766
H          2.67167        1.93070        0.92481
H          4.95164        1.27944        0.11452
H          4.95091       -0.09681        1.22078
H          4.72399        1.46569        3.16518
H          4.72173        2.84219        2.05959
H          7.00029        2.19088        1.24428
H          7.00109        0.81411        2.34970
H          6.76851        2.37561        4.29468
H          6.76859        3.75195        3.18997
H          9.05593        3.10739        2.38789
H          9.05538        1.73125        3.49385
H          8.84564        4.67272        4.32857
H         10.28546        3.64736        4.46861
H          8.84589        3.28959        5.44014
