50
0.602
N           -7.56885   1.91327  -1.05395
C           -8.16729   1.79448   0.30247
C           -7.64792   0.56198   1.03714
C           -6.16366   0.54306   1.13573
C           -5.43364   1.14450   2.11105
C           -4.03234   0.98728   1.95330
C           -3.68322   0.26336   0.84840
C           -2.33733  -0.04788   0.44114
C           -1.98940  -0.76425  -0.67156
C           -0.59191  -0.93316  -0.85522
C           -0.04209  -1.73314  -1.98368
C            0.15932  -0.30943   0.12458
C            1.60771  -0.23756   0.25834
C            2.18355  -0.19150   1.51702
C            3.56432  -0.12020   1.71870
C            4.47301  -0.05787   0.67699
C            5.90369   0.00302   0.95754
C            6.88793   0.67906   0.26652
C            6.66185   1.55014  -0.91984
C            8.18806   0.48129   0.82264
C            8.20191  -0.30150   1.92566
S            6.61233  -0.82161   2.32201
C            3.94383  -0.09306  -0.66169
N            4.62200  -0.08027  -1.79143
S            3.55305  -0.10047  -3.03690
N            2.17234  -0.14963  -2.14995
C            2.49783  -0.17445  -0.87396
S           -0.90382   0.42779   1.29236
S           -5.11438  -0.23470  -0.01092
Cl          -7.57741  -1.37384  -2.00386
H           -7.67218   1.01596  -1.56183
H           -6.55638   2.09910  -0.99130
H           -7.99835   2.66371  -1.62001
H           -9.26114   1.75801   0.22315
H           -7.93921   2.69821   0.88032
H           -7.97343  -0.34365   0.51268
H           -8.08125   0.49586   2.04253
H           -5.88242   1.69402   2.92475
H           -3.30392   1.39917   2.63456
H           -2.72131  -1.17335  -1.35017
H            0.16115  -1.09430  -2.84402
H           -0.74192  -2.51009  -2.29426
H            0.89236  -2.21781  -1.69802
H            1.52994  -0.22355   2.37240
H            3.94798  -0.10643   2.72533
H            6.71174   0.96666  -1.83952
H            7.41111   2.34114  -0.97720
H            5.67899   2.02102  -0.87515
H            9.07464   0.92705   0.39616
H            9.07547  -0.56841   2.49118
