 xtb: 6.5.1 (fef0646)
          01242310093D

 28 27  0     0  0            999 V2000
   -1.9103   -0.5719   -1.0267 N   0  0  0  0  0  0  0  0  0  0  0  0
   -1.2575   -1.3430    0.0718 C   0  0  0  0  0  0  0  0  0  0  0  0
   -0.4502   -0.4554    1.0226 C   0  0  0  0  0  0  0  0  0  0  0  0
    1.0276   -0.2367    0.6323 C   0  0  0  0  0  0  0  0  0  0  0  0
    1.2192    0.3976   -0.7636 C   0  0  0  0  0  0  0  0  0  0  0  0
    2.7027    0.7105   -1.0261 C   0  0  0  0  0  0  0  0  0  0  0  0
    3.5621   -0.5607   -0.8993 C   0  0  0  0  0  0  0  0  0  0  0  0
    3.3612   -1.2353    0.4698 C   0  0  0  0  0  0  0  0  0  0  0  0
    1.8737   -1.5295    0.7290 C   0  0  0  0  0  0  0  0  0  0  0  0
   -3.8165    1.9503    0.4137 Cl  0  0  0  0  0  0  0  0  0  0  0  0
   -2.4949   -1.1744   -1.6331 H   0  0  0  0  0  0  0  0  0  0  0  0
   -1.2189   -0.1032   -1.6336 H   0  0  0  0  0  0  0  0  0  0  0  0
   -2.5215    0.1682   -0.6390 H   0  0  0  0  0  0  0  0  0  0  0  0
   -0.6254   -2.1309   -0.3473 H   0  0  0  0  0  0  0  0  0  0  0  0
   -2.0419   -1.8737    0.6297 H   0  0  0  0  0  0  0  0  0  0  0  0
   -0.4769   -0.8785    2.0358 H   0  0  0  0  0  0  0  0  0  0  0  0
   -0.9522    0.5161    1.1042 H   0  0  0  0  0  0  0  0  0  0  0  0
    1.4635    0.4720    1.3579 H   0  0  0  0  0  0  0  0  0  0  0  0
    0.5933    1.2934   -0.8690 H   0  0  0  0  0  0  0  0  0  0  0  0
    0.8679   -0.3097   -1.5230 H   0  0  0  0  0  0  0  0  0  0  0  0
    3.0504    1.4583   -0.3021 H   0  0  0  0  0  0  0  0  0  0  0  0
    2.8347    1.1760   -2.0130 H   0  0  0  0  0  0  0  0  0  0  0  0
    4.6233   -0.3313   -1.0684 H   0  0  0  0  0  0  0  0  0  0  0  0
    3.2865   -1.2653   -1.6944 H   0  0  0  0  0  0  0  0  0  0  0  0
    3.7442   -0.5761    1.2592 H   0  0  0  0  0  0  0  0  0  0  0  0
    3.9586   -2.1550    0.5432 H   0  0  0  0  0  0  0  0  0  0  0  0
    1.7244   -2.0118    1.7038 H   0  0  0  0  0  0  0  0  0  0  0  0
    1.5142   -2.2510   -0.0131 H   0  0  0  0  0  0  0  0  0  0  0  0
  1  2  1  0  0  0  0
  2  3  1  0  0  0  0
  3  4  1  0  0  0  0
  4  5  1  0  0  0  0
  5  6  1  0  0  0  0
  6  7  1  0  0  0  0
  7  8  1  0  0  0  0
  4  9  1  0  0  0  0
  8  9  1  0  0  0  0
  1 11  1  0  0  0  0
  1 12  1  0  0  0  0
  1 13  1  0  0  0  0
  2 14  1  0  0  0  0
  2 15  1  0  0  0  0
  3 16  1  0  0  0  0
  3 17  1  0  0  0  0
  4 18  1  0  0  0  0
  5 19  1  0  0  0  0
  5 20  1  0  0  0  0
  6 21  1  0  0  0  0
  6 22  1  0  0  0  0
  7 23  1  0  0  0  0
  7 24  1  0  0  0  0
  8 25  1  0  0  0  0
  8 26  1  0  0  0  0
  9 27  1  0  0  0  0
  9 28  1  0  0  0  0
M  END
