 xtb: 6.5.1 (fef0646)
          01242316573D

 25 25  0     0  0            999 V2000
   -2.4741   -0.3150   -0.7211 N   0  0  0  0  0  0  0  0  0  0  0  0
   -1.7544   -0.4360    0.5794 C   0  0  0  0  0  0  0  0  0  0  0  0
   -0.3697    0.1269    0.5100 C   0  0  0  0  0  0  0  0  0  0  0  0
   -0.1449    1.4898    0.7834 C   0  0  0  0  0  0  0  0  0  0  0  0
    1.1030    2.0291    0.6921 C   0  0  0  0  0  0  0  0  0  0  0  0
    0.6833   -0.6608    0.1327 C   0  0  0  0  0  0  0  0  0  0  0  0
    1.9922   -0.1375    0.0289 C   0  0  0  0  0  0  0  0  0  0  0  0
    2.2068    1.2317    0.3148 C   0  0  0  0  0  0  0  0  0  0  0  0
    3.5160    1.7555    0.2105 C   0  0  0  0  0  0  0  0  0  0  0  0
    4.5558    0.9562   -0.1593 C   0  0  0  0  0  0  0  0  0  0  0  0
    4.3432   -0.4001   -0.4432 C   0  0  0  0  0  0  0  0  0  0  0  0
    3.0941   -0.9371   -0.3527 C   0  0  0  0  0  0  0  0  0  0  0  0
   -5.7111   -1.6433   -0.4896 Cl  0  0  0  0  0  0  0  0  0  0  0  0
   -3.4300   -0.7034   -0.6710 H   0  0  0  0  0  0  0  0  0  0  0  0
   -1.9669   -0.8147   -1.4675 H   0  0  0  0  0  0  0  0  0  0  0  0
   -2.5474    0.6709   -1.0061 H   0  0  0  0  0  0  0  0  0  0  0  0
   -1.7078   -1.4874    0.8852 H   0  0  0  0  0  0  0  0  0  0  0  0
   -2.3180    0.0748    1.3683 H   0  0  0  0  0  0  0  0  0  0  0  0
   -0.9810    2.1068    1.0663 H   0  0  0  0  0  0  0  0  0  0  0  0
    1.2623    3.0725    0.9053 H   0  0  0  0  0  0  0  0  0  0  0  0
    0.5159   -1.6993   -0.0926 H   0  0  0  0  0  0  0  0  0  0  0  0
    3.6797    2.7975    0.4279 H   0  0  0  0  0  0  0  0  0  0  0  0
    5.5500    1.3663   -0.2354 H   0  0  0  0  0  0  0  0  0  0  0  0
    5.1760   -1.0196   -0.7348 H   0  0  0  0  0  0  0  0  0  0  0  0
    2.9314   -1.9791   -0.5711 H   0  0  0  0  0  0  0  0  0  0  0  0
  1  2  1  0  0  0  0
  2  3  1  0  0  0  0
  3  4  4  0  0  0  0
  4  5  2  0  0  0  0
  3  6  2  0  0  0  0
  6  7  4  0  0  0  0
  5  8  4  0  0  0  0
  7  8  4  0  0  0  0
  8  9  4  0  0  0  0
  9 10  2  0  0  0  0
 10 11  4  0  0  0  0
  7 12  4  0  0  0  0
 11 12  2  0  0  0  0
  1 14  1  0  0  0  0
  1 15  1  0  0  0  0
  1 16  1  0  0  0  0
  2 17  1  0  0  0  0
  2 18  1  0  0  0  0
  4 19  1  0  0  0  0
  5 20  1  0  0  0  0
  6 21  1  0  0  0  0
  9 22  1  0  0  0  0
 10 23  1  0  0  0  0
 11 24  1  0  0  0  0
 12 25  1  0  0  0  0
M  END
