 xtb: 6.5.1 (fef0646)
          01232314283D

 28 28  0     0  0            999 V2000
    0.8823   -0.2557   -0.1724 N   0  0  0  0  0  0  0  0  0  0  0  0
    2.3185    0.0182   -0.3117 C   0  0  0  0  0  0  0  0  0  0  0  0
    3.0876   -0.8591    0.6739 C   0  0  0  0  0  0  0  0  0  0  0  0
    2.8090   -0.1852   -1.7291 C   0  0  0  0  0  0  0  0  0  0  0  0
    2.6248   -1.4294   -2.3660 C   0  0  0  0  0  0  0  0  0  0  0  0
    3.0438   -1.6299   -3.6494 C   0  0  0  0  0  0  0  0  0  0  0  0
    3.4205    0.8305   -2.4158 C   0  0  0  0  0  0  0  0  0  0  0  0
    3.8688    0.6574   -3.7413 C   0  0  0  0  0  0  0  0  0  0  0  0
    3.6735   -0.5971   -4.3747 C   0  0  0  0  0  0  0  0  0  0  0  0
    4.1130   -0.7692   -5.7033 C   0  0  0  0  0  0  0  0  0  0  0  0
    4.7200    0.2554   -6.3740 C   0  0  0  0  0  0  0  0  0  0  0  0
    4.9161    1.4959   -5.7470 C   0  0  0  0  0  0  0  0  0  0  0  0
    4.5001    1.6939   -4.4603 C   0  0  0  0  0  0  0  0  0  0  0  0
   -0.0174    0.2481    2.5623 Cl  0  0  0  0  0  0  0  0  0  0  0  0
    0.4172    0.0134    1.2739 H   0  0  0  0  0  0  0  0  0  0  0  0
    0.6811   -1.2286   -0.3799 H   0  0  0  0  0  0  0  0  0  0  0  0
    0.3389    0.3304   -0.7978 H   0  0  0  0  0  0  0  0  0  0  0  0
    2.4617    1.0682   -0.0341 H   0  0  0  0  0  0  0  0  0  0  0  0
    2.9688   -1.9118    0.4292 H   0  0  0  0  0  0  0  0  0  0  0  0
    2.7145   -0.6900    1.6795 H   0  0  0  0  0  0  0  0  0  0  0  0
    4.1458   -0.6146    0.6396 H   0  0  0  0  0  0  0  0  0  0  0  0
    2.1484   -2.2374   -1.8278 H   0  0  0  0  0  0  0  0  0  0  0  0
    2.8982   -2.5875   -4.1287 H   0  0  0  0  0  0  0  0  0  0  0  0
    3.5704    1.7908   -1.9418 H   0  0  0  0  0  0  0  0  0  0  0  0
    3.9600   -1.7264   -6.1811 H   0  0  0  0  0  0  0  0  0  0  0  0
    5.0539    0.1190   -7.3922 H   0  0  0  0  0  0  0  0  0  0  0  0
    5.3992    2.2932   -6.2925 H   0  0  0  0  0  0  0  0  0  0  0  0
    4.6490    2.6473   -3.9741 H   0  0  0  0  0  0  0  0  0  0  0  0
  1  2  1  0  0  0  0
  2  3  1  0  0  0  0
  2  4  1  0  0  0  0
  4  5  4  0  0  0  0
  5  6  2  0  0  0  0
  4  7  2  0  0  0  0
  7  8  4  0  0  0  0
  6  9  4  0  0  0  0
  8  9  4  0  0  0  0
  9 10  4  0  0  0  0
 10 11  2  0  0  0  0
 11 12  4  0  0  0  0
  8 13  4  0  0  0  0
 12 13  2  0  0  0  0
 14 15  1  0  0  0  0
  1 16  1  0  0  0  0
  1 17  1  0  0  0  0
  2 18  1  0  0  0  0
  3 19  1  0  0  0  0
  3 20  1  0  0  0  0
  3 21  1  0  0  0  0
  5 22  1  0  0  0  0
  6 23  1  0  0  0  0
  7 24  1  0  0  0  0
 10 25  1  0  0  0  0
 11 26  1  0  0  0  0
 12 27  1  0  0  0  0
 13 28  1  0  0  0  0
M  END
