  16

 N          1.1114183657       -0.1196309364       -0.5176703582
 C          2.5543580300       -0.3289116079       -0.6278297125
 C          3.0005796518       -1.4193790446        0.3483598901
 C          4.4892887980       -1.5607571202        0.3532398135
 C          5.1368582007       -2.6626640974        0.0267354601
 Cl         0.4517040503        0.6905952272        2.2221118473
 H          0.7957199163        0.6078463315       -1.1492993352
 H          0.7636793698        0.3098118230        0.9404369844
 H          0.6066413931       -0.9758055044       -0.7236491746
 H          3.0429567913        0.6142161554       -0.3722355516
 H          2.8569831911       -0.6065482033       -1.6476973496
 H          2.5365675375       -2.3694403238        0.0757876906
 H          2.6572905524       -1.1416607450        1.3472782171
 H          5.0337018349       -0.6731808844        0.6472678982
 H          4.6164059974       -3.5602227201       -0.2663105466
 H          6.2113463197       -2.7225183497        0.0479542269
