 xtb: 6.5.1 (fef0646)
          01232314293D

 28 28  0     0  0            999 V2000
    2.4657    0.8337   -0.9158 N   0  0  0  0  0  0  0  0  0  0  0  0
    2.3195   -0.0182    0.2664 C   0  0  0  0  0  0  0  0  0  0  0  0
    0.8457   -0.3960    0.4174 C   0  0  0  0  0  0  0  0  0  0  0  0
    2.8234    0.6077    1.5506 C   0  0  0  0  0  0  0  0  0  0  0  0
    3.4463   -0.2154    2.5101 C   0  0  0  0  0  0  0  0  0  0  0  0
    3.8859    0.2959    3.6967 C   0  0  0  0  0  0  0  0  0  0  0  0
    2.6591    1.9407    1.8232 C   0  0  0  0  0  0  0  0  0  0  0  0
    3.1063    2.5036    3.0360 C   0  0  0  0  0  0  0  0  0  0  0  0
    3.7323    1.6661    3.9946 C   0  0  0  0  0  0  0  0  0  0  0  0
    4.1774    2.2291    5.2082 C   0  0  0  0  0  0  0  0  0  0  0  0
    4.0094    3.5617    5.4612 C   0  0  0  0  0  0  0  0  0  0  0  0
    3.3892    4.3906    4.5133 C   0  0  0  0  0  0  0  0  0  0  0  0
    2.9476    3.8745    3.3274 C   0  0  0  0  0  0  0  0  0  0  0  0
    1.6110   -0.6030   -3.3182 Cl  0  0  0  0  0  0  0  0  0  0  0  0
    3.4269    1.1363   -1.0329 H   0  0  0  0  0  0  0  0  0  0  0  0
    1.8678    1.6505   -0.8483 H   0  0  0  0  0  0  0  0  0  0  0  0
    2.0177    0.0662   -2.1841 H   0  0  0  0  0  0  0  0  0  0  0  0
    2.8989   -0.9267    0.0665 H   0  0  0  0  0  0  0  0  0  0  0  0
    0.2500    0.4903    0.6256 H   0  0  0  0  0  0  0  0  0  0  0  0
    0.7209   -1.0952    1.2393 H   0  0  0  0  0  0  0  0  0  0  0  0
    0.4887   -0.8551   -0.4998 H   0  0  0  0  0  0  0  0  0  0  0  0
    3.5708   -1.2660    2.2900 H   0  0  0  0  0  0  0  0  0  0  0  0
    4.3612   -0.3440    4.4261 H   0  0  0  0  0  0  0  0  0  0  0  0
    2.1768    2.5987    1.1123 H   0  0  0  0  0  0  0  0  0  0  0  0
    4.6537    1.5860    5.9344 H   0  0  0  0  0  0  0  0  0  0  0  0
    4.3525    3.9878    6.3925 H   0  0  0  0  0  0  0  0  0  0  0  0
    3.2645    5.4414    4.7303 H   0  0  0  0  0  0  0  0  0  0  0  0
    2.4693    4.5109    2.5960 H   0  0  0  0  0  0  0  0  0  0  0  0
  1  2  1  0  0  0  0
  2  3  1  0  0  0  0
  2  4  1  0  0  0  0
  4  5  4  0  0  0  0
  5  6  2  0  0  0  0
  4  7  2  0  0  0  0
  7  8  4  0  0  0  0
  6  9  4  0  0  0  0
  8  9  4  0  0  0  0
  9 10  4  0  0  0  0
 10 11  2  0  0  0  0
 11 12  4  0  0  0  0
  8 13  4  0  0  0  0
 12 13  2  0  0  0  0
  1 15  1  0  0  0  0
  1 16  1  0  0  0  0
 14 17  1  0  0  0  0
  2 18  1  0  0  0  0
  3 19  1  0  0  0  0
  3 20  1  0  0  0  0
  3 21  1  0  0  0  0
  5 22  1  0  0  0  0
  6 23  1  0  0  0  0
  7 24  1  0  0  0  0
 10 25  1  0  0  0  0
 11 26  1  0  0  0  0
 12 27  1  0  0  0  0
 13 28  1  0  0  0  0
M  END
