21
 xtb: 6.5.1 (fef0646)
N           -0.49466949225137       -1.43950946531616       -0.77197752761105
C            0.38605136326809       -1.24982791339417        0.42109063607103
C            0.66202765344277        0.22252119410228        0.72908477127568
C            1.54534627123722        0.93537405887965       -0.31088506409422
C            3.05227071976081        0.85060369499597       -0.03507583889460
C            3.62384178862134       -0.55904064136665       -0.07241057108275
Cl          -3.59055075132479        0.66083689594353        0.09194840109057
H           -1.45731869226186       -0.85679905075509       -0.56087784096601
H           -0.83845120445035       -2.35977915182091       -0.91753367001842
H           -0.18068593456821       -0.99701361959865       -1.60778861881151
H            1.27277432286204       -1.78203486512011        0.20011131970238
H           -0.08617480401105       -1.72328035642235        1.28906639132731
H            1.13749397879308        0.31344738788581        1.71783171519840
H           -0.29365805722452        0.76382444732634        0.83802921583995
H            1.25723134888780        1.99813907239882       -0.37300690023787
H            1.32966148778151        0.53517568476031       -1.30756060977098
H            3.26507936979762        1.31154775036871        0.93657915596369
H            3.58830314587923        1.47162203221755       -0.76568980668560
H            3.22274725616533       -1.16919713220255        0.74987736215900
H            4.70205006009208       -0.56948780223154        0.02547090538570
H            3.36432111117296       -1.06745968358315       -1.00323594990257
