 xtb: 6.5.1 (fef0646)
          01242314573D

 41 40  0     0  0            999 V2000
    0.8073    0.0081    0.0881 N   0  0  0  0  0  0  0  0  0  0  0  0
    2.2911    0.0016    0.0837 C   0  0  0  0  0  0  0  0  0  0  0  0
    2.8203   -1.0860   -0.8440 C   0  0  0  0  0  0  0  0  0  0  0  0
    4.3483   -1.1023   -0.8546 C   0  0  0  0  0  0  0  0  0  0  0  0
    4.8913   -2.1885   -1.7809 C   0  0  0  0  0  0  0  0  0  0  0  0
    6.4177   -2.2125   -1.8002 C   0  0  0  0  0  0  0  0  0  0  0  0
    6.9592   -3.2985   -2.7270 C   0  0  0  0  0  0  0  0  0  0  0  0
    8.4855   -3.3257   -2.7503 C   0  0  0  0  0  0  0  0  0  0  0  0
    9.0253   -4.4123   -3.6773 C   0  0  0  0  0  0  0  0  0  0  0  0
   10.5517   -4.4412   -3.7017 C   0  0  0  0  0  0  0  0  0  0  0  0
   11.0904   -5.5279   -4.6292 C   0  0  0  0  0  0  0  0  0  0  0  0
   12.6169   -5.5590   -4.6553 C   0  0  0  0  0  0  0  0  0  0  0  0
   13.1468   -6.6455   -5.5837 C   0  0  0  0  0  0  0  0  0  0  0  0
    0.4474    0.7410    0.7096 H   0  0  0  0  0  0  0  0  0  0  0  0
    0.4511   -0.9008    0.4075 H   0  0  0  0  0  0  0  0  0  0  0  0
    0.4529    0.1768   -0.8609 H   0  0  0  0  0  0  0  0  0  0  0  0
    2.6516   -0.1726    1.0973 H   0  0  0  0  0  0  0  0  0  0  0  0
    2.6522    0.9750   -0.2477 H   0  0  0  0  0  0  0  0  0  0  0  0
    2.4698   -0.9171   -1.8631 H   0  0  0  0  0  0  0  0  0  0  0  0
    2.4669   -2.0654   -0.5188 H   0  0  0  0  0  0  0  0  0  0  0  0
    4.7250   -1.2779    0.1548 H   0  0  0  0  0  0  0  0  0  0  0  0
    4.7279   -0.1337   -1.1852 H   0  0  0  0  0  0  0  0  0  0  0  0
    4.5280   -2.0213   -2.7974 H   0  0  0  0  0  0  0  0  0  0  0  0
    4.5270   -3.1657   -1.4561 H   0  0  0  0  0  0  0  0  0  0  0  0
    6.7944   -2.3861   -0.7894 H   0  0  0  0  0  0  0  0  0  0  0  0
    6.7954   -1.2417   -2.1299 H   0  0  0  0  0  0  0  0  0  0  0  0
    6.5899   -3.1293   -3.7414 H   0  0  0  0  0  0  0  0  0  0  0  0
    6.5899   -4.2737   -2.4006 H   0  0  0  0  0  0  0  0  0  0  0  0
    8.8617   -3.4982   -1.7390 H   0  0  0  0  0  0  0  0  0  0  0  0
    8.8616   -2.3542   -3.0799 H   0  0  0  0  0  0  0  0  0  0  0  0
    8.6537   -4.2420   -4.6906 H   0  0  0  0  0  0  0  0  0  0  0  0
    8.6535   -5.3862   -3.3496 H   0  0  0  0  0  0  0  0  0  0  0  0
   10.9272   -4.6136   -2.6900 H   0  0  0  0  0  0  0  0  0  0  0  0
   10.9274   -3.4692   -4.0306 H   0  0  0  0  0  0  0  0  0  0  0  0
   10.7179   -5.3565   -5.6420 H   0  0  0  0  0  0  0  0  0  0  0  0
   10.7175   -6.5012   -4.3012 H   0  0  0  0  0  0  0  0  0  0  0  0
   12.9916   -5.7325   -3.6439 H   0  0  0  0  0  0  0  0  0  0  0  0
   12.9921   -4.5871   -4.9841 H   0  0  0  0  0  0  0  0  0  0  0  0
   12.8004   -7.6249   -5.2611 H   0  0  0  0  0  0  0  0  0  0  0  0
   14.2341   -6.6501   -5.5871 H   0  0  0  0  0  0  0  0  0  0  0  0
   12.8010   -6.4791   -6.6016 H   0  0  0  0  0  0  0  0  0  0  0  0
  1  2  1  0  0  0  0
  2  3  1  0  0  0  0
  3  4  1  0  0  0  0
  4  5  1  0  0  0  0
  5  6  1  0  0  0  0
  6  7  1  0  0  0  0
  7  8  1  0  0  0  0
  8  9  1  0  0  0  0
  9 10  1  0  0  0  0
 10 11  1  0  0  0  0
 11 12  1  0  0  0  0
 12 13  1  0  0  0  0
  1 14  1  0  0  0  0
  1 15  1  0  0  0  0
  1 16  1  0  0  0  0
  2 17  1  0  0  0  0
  2 18  1  0  0  0  0
  3 19  1  0  0  0  0
  3 20  1  0  0  0  0
  4 21  1  0  0  0  0
  4 22  1  0  0  0  0
  5 23  1  0  0  0  0
  5 24  1  0  0  0  0
  6 25  1  0  0  0  0
  6 26  1  0  0  0  0
  7 27  1  0  0  0  0
  7 28  1  0  0  0  0
  8 29  1  0  0  0  0
  8 30  1  0  0  0  0
  9 31  1  0  0  0  0
  9 32  1  0  0  0  0
 10 33  1  0  0  0  0
 10 34  1  0  0  0  0
 11 35  1  0  0  0  0
 11 36  1  0  0  0  0
 12 37  1  0  0  0  0
 12 38  1  0  0  0  0
 13 39  1  0  0  0  0
 13 40  1  0  0  0  0
 13 41  1  0  0  0  0
M  CHG  1   1   1
M  END
