 xtb: 6.5.1 (fef0646)
          02032318073D

 12 11  0     0  0            999 V2000
   -1.6773   -0.8053   -0.1562 N   0  0  0  0  0  0  0  0  0  0  0  0
   -1.1732    0.4943    0.3921 C   0  0  0  0  0  0  0  0  0  0  0  0
    0.1279    0.9681   -0.2686 C   0  0  0  0  0  0  0  0  0  0  0  0
    1.2186    0.0958   -0.0555 C   0  0  0  0  0  0  0  0  0  0  0  0
    2.1027   -0.6261    0.1240 N   0  0  0  0  0  0  0  0  0  0  0  0
   -1.8690   -0.7239   -1.1586 H   0  0  0  0  0  0  0  0  0  0  0  0
   -2.5411   -1.0911    0.3136 H   0  0  0  0  0  0  0  0  0  0  0  0
   -0.9805   -1.5439   -0.0219 H   0  0  0  0  0  0  0  0  0  0  0  0
   -1.0114    0.3804    1.4740 H   0  0  0  0  0  0  0  0  0  0  0  0
   -1.9594    1.2552    0.2761 H   0  0  0  0  0  0  0  0  0  0  0  0
    0.4070    1.9641    0.1053 H   0  0  0  0  0  0  0  0  0  0  0  0
   -0.0225    1.0820   -1.3503 H   0  0  0  0  0  0  0  0  0  0  0  0
  1  2  1  0  0  0  0
  2  3  1  0  0  0  0
  3  4  1  0  0  0  0
  4  5  3  0  0  0  0
  1  6  1  0  0  0  0
  1  7  1  0  0  0  0
  1  8  1  0  0  0  0
  2  9  1  0  0  0  0
  2 10  1  0  0  0  0
  3 11  1  0  0  0  0
  3 12  1  0  0  0  0
M  CHG  1   1   1
M  END
