 xtb: 6.5.1 (fef0646)
          01242315293D

 27 28  0     0  0            999 V2000
    2.6942   -1.5254   -2.1215 N   0  0  0  0  0  0  0  0  0  0  0  0
    2.4233   -0.5885   -1.0039 C   0  0  0  0  0  0  0  0  0  0  0  0
    3.0196   -1.1301    0.2944 C   0  0  0  0  0  0  0  0  0  0  0  0
    4.5252   -1.1831    0.2365 C   0  0  0  0  0  0  0  0  0  0  0  0
    5.2687   -0.0345    0.3373 C   0  0  0  0  0  0  0  0  0  0  0  0
    6.6759   -0.0640    0.2749 C   0  0  0  0  0  0  0  0  0  0  0  0
    7.4547    1.1076    0.3855 C   0  0  0  0  0  0  0  0  0  0  0  0
    8.8186    1.0449    0.3322 C   0  0  0  0  0  0  0  0  0  0  0  0
    9.4675   -0.1896    0.1630 C   0  0  0  0  0  0  0  0  0  0  0  0
    8.7414   -1.3420    0.0506 C   0  0  0  0  0  0  0  0  0  0  0  0
    7.3323   -1.3115    0.1036 C   0  0  0  0  0  0  0  0  0  0  0  0
    6.5496   -2.4800    0.0019 C   0  0  0  0  0  0  0  0  0  0  0  0
    5.1855   -2.4160    0.0618 C   0  0  0  0  0  0  0  0  0  0  0  0
    2.3406   -1.1526   -3.0100 H   0  0  0  0  0  0  0  0  0  0  0  0
    2.2454   -2.4313   -1.9415 H   0  0  0  0  0  0  0  0  0  0  0  0
    3.7069   -1.6783   -2.2034 H   0  0  0  0  0  0  0  0  0  0  0  0
    1.3469   -0.4649   -0.8919 H   0  0  0  0  0  0  0  0  0  0  0  0
    2.8686    0.3787   -1.2349 H   0  0  0  0  0  0  0  0  0  0  0  0
    2.6237   -2.1235    0.5047 H   0  0  0  0  0  0  0  0  0  0  0  0
    2.7172   -0.4739    1.1100 H   0  0  0  0  0  0  0  0  0  0  0  0
    4.7855    0.9205    0.4847 H   0  0  0  0  0  0  0  0  0  0  0  0
    6.9562    2.0571    0.5173 H   0  0  0  0  0  0  0  0  0  0  0  0
    9.4114    1.9437    0.4200 H   0  0  0  0  0  0  0  0  0  0  0  0
   10.5468   -0.2181    0.1247 H   0  0  0  0  0  0  0  0  0  0  0  0
    9.2388   -2.2930   -0.0773 H   0  0  0  0  0  0  0  0  0  0  0  0
    7.0521   -3.4286   -0.1198 H   0  0  0  0  0  0  0  0  0  0  0  0
    4.6080   -3.3266    0.0027 H   0  0  0  0  0  0  0  0  0  0  0  0
  1  2  1  0  0  0  0
  2  3  1  0  0  0  0
  3  4  1  0  0  0  0
  4  5  2  0  0  0  0
  5  6  4  0  0  0  0
  6  7  4  0  0  0  0
  7  8  2  0  0  0  0
  8  9  4  0  0  0  0
  9 10  2  0  0  0  0
  6 11  4  0  0  0  0
 10 11  4  0  0  0  0
 11 12  4  0  0  0  0
  4 13  4  0  0  0  0
 12 13  2  0  0  0  0
  1 14  1  0  0  0  0
  1 15  1  0  0  0  0
  1 16  1  0  0  0  0
  2 17  1  0  0  0  0
  2 18  1  0  0  0  0
  3 19  1  0  0  0  0
  3 20  1  0  0  0  0
  5 21  1  0  0  0  0
  7 22  1  0  0  0  0
  8 23  1  0  0  0  0
  9 24  1  0  0  0  0
 10 25  1  0  0  0  0
 12 26  1  0  0  0  0
 13 27  1  0  0  0  0
M  CHG  1   1   1
M  END
