 xtb: 6.5.1 (fef0646)
          01242310103D

 24 22  0     0  0            999 V2000
    0.8907   -2.0929    1.1772 N   0  0  0  0  0  0  0  0  0  0  0  0
   -0.1084   -2.3991    0.1184 C   0  0  0  0  0  0  0  0  0  0  0  0
   -0.5732   -1.1501   -0.6243 C   0  0  0  0  0  0  0  0  0  0  0  0
   -1.3221   -0.1603    0.2671 C   0  0  0  0  0  0  0  0  0  0  0  0
   -1.8157    1.0707   -0.4940 C   0  0  0  0  0  0  0  0  0  0  0  0
   -2.5611    2.0656    0.3968 C   0  0  0  0  0  0  0  0  0  0  0  0
   -3.0484    3.2875   -0.3658 C   0  0  0  0  0  0  0  0  0  0  0  0
    3.3897   -0.1622   -0.2753 Cl  0  0  0  0  0  0  0  0  0  0  0  0
    0.4790   -1.5215    1.9315 H   0  0  0  0  0  0  0  0  0  0  0  0
    1.6846   -1.5540    0.7837 H   0  0  0  0  0  0  0  0  0  0  0  0
    1.2753   -2.9489    1.6125 H   0  0  0  0  0  0  0  0  0  0  0  0
   -0.9707   -2.9100    0.5638 H   0  0  0  0  0  0  0  0  0  0  0  0
    0.3253   -3.1177   -0.5891 H   0  0  0  0  0  0  0  0  0  0  0  0
   -1.2145   -1.4302   -1.4706 H   0  0  0  0  0  0  0  0  0  0  0  0
    0.2932   -0.6497   -1.0740 H   0  0  0  0  0  0  0  0  0  0  0  0
   -0.6772    0.1592    1.0946 H   0  0  0  0  0  0  0  0  0  0  0  0
   -2.1715   -0.6641    0.7450 H   0  0  0  0  0  0  0  0  0  0  0  0
   -2.4656    0.7574   -1.3206 H   0  0  0  0  0  0  0  0  0  0  0  0
   -0.9662    1.5713   -0.9750 H   0  0  0  0  0  0  0  0  0  0  0  0
   -1.9070    2.3720    1.2243 H   0  0  0  0  0  0  0  0  0  0  0  0
   -3.4074    1.5577    0.8786 H   0  0  0  0  0  0  0  0  0  0  0  0
   -2.2155    3.8257   -0.8240 H   0  0  0  0  0  0  0  0  0  0  0  0
   -3.5783    3.9918    0.2806 H   0  0  0  0  0  0  0  0  0  0  0  0
   -3.7300    3.0049   -1.1714 H   0  0  0  0  0  0  0  0  0  0  0  0
  1  2  1  0  0  0  0
  2  3  1  0  0  0  0
  3  4  1  0  0  0  0
  4  5  1  0  0  0  0
  5  6  1  0  0  0  0
  6  7  1  0  0  0  0
  1  9  1  0  0  0  0
  1 10  1  0  0  0  0
  1 11  1  0  0  0  0
  2 12  1  0  0  0  0
  2 13  1  0  0  0  0
  3 14  1  0  0  0  0
  3 15  1  0  0  0  0
  4 16  1  0  0  0  0
  4 17  1  0  0  0  0
  5 18  1  0  0  0  0
  5 19  1  0  0  0  0
  6 20  1  0  0  0  0
  6 21  1  0  0  0  0
  7 22  1  0  0  0  0
  7 23  1  0  0  0  0
  7 24  1  0  0  0  0
M  END
