21
 xtb: 6.5.1 (fef0646)
N           -1.43280978386708       -1.61856945641824       -0.30079767829869
C            0.06337715094749       -1.60094095074786       -0.36792534356683
C            0.66734880621021       -0.88510895390673        0.83580839916074
C            2.19460266729741       -0.77589505068756        0.80410647851736
C            2.74498898093230        0.04031284682378       -0.37011401066810
C            2.26475172153464        1.48449019029206       -0.38190117160310
Cl          -2.48970588741598        1.36072965650142       -0.05757389967225
H           -1.81850577619870       -0.78302402792885       -0.24621809576144
H           -1.69164122046939       -2.25060541304282        0.53253173235139
H           -1.79350807419424       -2.20540544373151       -1.12817631106548
H            0.37776394627776       -1.11820731475909       -1.29985687556763
H            0.53244853581883       -2.63192258982893       -0.44657595362296
H            0.34670566046971       -1.40774722312977        1.74441010859356
H            0.21591579839893        0.10020407078583        0.89446852312061
H            2.63279171820830       -1.77983318446429        0.79956489410223
H            2.54012063756449       -0.31851416138892        1.74556895477318
H            2.48222258563355       -0.45228996370531       -1.31229777171219
H            3.84540805786537        0.02011610324248       -0.34320049174026
H            2.50976569539177        1.99106160128645        0.55160419056989
H            1.18362767261845        1.54466472026485       -0.51100753806680
H            2.71812959675099        2.05739988415149       -1.19531333811075
