20
0.0
N            2.50007  -0.83467   0.21385
C            1.98877   0.44035  -0.36705
C            0.62474   0.85485   0.18213
C           -0.51741  -0.08067  -0.22275
C           -1.88940   0.38199   0.27950
C           -3.02539  -0.54918  -0.12139
H            2.56629  -0.77508   1.24031
H            3.44107  -1.06172  -0.14137
H            1.88868  -1.63144  -0.01460
H            1.93716   0.34565  -1.45856
H            2.72636   1.23109  -0.17506
H            0.38583   1.87312  -0.14935
H            0.67806   0.91360   1.27512
H           -0.31799  -1.09171   0.14860
H           -0.54256  -0.17512  -1.31448
H           -2.08897   1.39409  -0.09499
H           -1.85945   0.48423   1.37165
H           -2.87477  -1.55413   0.27748
H           -3.10074  -0.63927  -1.20670
H           -3.99231  -0.19499   0.24409
