48
0.966
N           -7.52851  -0.30575  -1.83466
C           -8.09536   0.88911  -1.15428
C           -7.48773   1.08499   0.23255
C           -6.00325   1.17448   0.19375
C           -5.29063   2.30915  -0.02900
C           -3.88628   2.10830  -0.03619
C           -3.51733   0.81112   0.18054
C           -2.16267   0.32417   0.22064
C           -1.78241  -0.96564   0.45818
C           -0.37877  -1.17978   0.43672
C            0.20489  -2.52782   0.67885
C            0.34416  -0.03072   0.17267
C            1.78074   0.08026   0.07286
C            2.50204   1.23362  -0.17606
C            1.92298   2.50116  -0.37193
N            1.41106   3.53050  -0.53531
C            3.92607   1.03131  -0.22124
C            4.84001   2.08616  -0.40929
N            5.62307   2.92743  -0.57658
C            4.29757  -0.28367  -0.02354
C            5.63653  -0.84620  -0.01498
C            6.69158  -0.56063  -0.85678
C            6.64420   0.38464  -2.00662
C            7.87248  -1.29376  -0.52913
C            7.72445  -2.13845   0.51578
S            6.12370  -2.06366   1.13534
S            2.88537  -1.24666   0.25108
S           -0.76057   1.30705  -0.03142
S           -4.93304  -0.17910   0.39911
Cl          -7.35249  -2.46056   0.81749
H           -7.58027  -1.12495  -1.20223
H           -6.53027  -0.16402  -2.05096
H           -8.01742  -0.53718  -2.71484
H           -9.18574   0.79161  -1.08194
H           -7.91425   1.77738  -1.77116
H           -7.76902   0.24661   0.87966
H           -7.89492   1.98240   0.71337
H           -5.75381   3.27095  -0.19005
H           -3.16964   2.89922  -0.19744
H           -2.49356  -1.75473   0.64593
H            0.88167  -2.50856   1.53405
H            0.76574  -2.86919  -0.19200
H           -0.57301  -3.26390   0.88535
H            6.96623   1.38062  -1.70103
H            5.63285   0.46435  -2.40743
H            7.29711   0.05184  -2.81443
H            8.79592  -1.17900  -1.07743
H            8.48975  -2.77742   0.91587
