 xtb: 6.5.1 (fef0646)
          01242310063D

 48 50  0     0  0            999 V2000
   -7.5285   -0.3057   -1.8346 N   0  0  0  0  0  0  0  0  0  0  0  0
   -8.0954    0.8892   -1.1543 C   0  0  0  0  0  0  0  0  0  0  0  0
   -7.4877    1.0850    0.2326 C   0  0  0  0  0  0  0  0  0  0  0  0
   -6.0032    1.1745    0.1938 C   0  0  0  0  0  0  0  0  0  0  0  0
   -5.2906    2.3092   -0.0290 C   0  0  0  0  0  0  0  0  0  0  0  0
   -3.8863    2.1083   -0.0362 C   0  0  0  0  0  0  0  0  0  0  0  0
   -3.5173    0.8111    0.1806 C   0  0  0  0  0  0  0  0  0  0  0  0
   -2.1627    0.3242    0.2206 C   0  0  0  0  0  0  0  0  0  0  0  0
   -1.7824   -0.9656    0.4582 C   0  0  0  0  0  0  0  0  0  0  0  0
   -0.3788   -1.1798    0.4367 C   0  0  0  0  0  0  0  0  0  0  0  0
    0.2049   -2.5278    0.6789 C   0  0  0  0  0  0  0  0  0  0  0  0
    0.3442   -0.0307    0.1727 C   0  0  0  0  0  0  0  0  0  0  0  0
    1.7807    0.0803    0.0729 C   0  0  0  0  0  0  0  0  0  0  0  0
    2.5020    1.2336   -0.1761 C   0  0  0  0  0  0  0  0  0  0  0  0
    1.9230    2.5011   -0.3719 C   0  0  0  0  0  0  0  0  0  0  0  0
    1.4111    3.5305   -0.5353 N   0  0  0  0  0  0  0  0  0  0  0  0
    3.9261    1.0313   -0.2213 C   0  0  0  0  0  0  0  0  0  0  0  0
    4.8400    2.0861   -0.4093 C   0  0  0  0  0  0  0  0  0  0  0  0
    5.6231    2.9274   -0.5766 N   0  0  0  0  0  0  0  0  0  0  0  0
    4.2976   -0.2837   -0.0236 C   0  0  0  0  0  0  0  0  0  0  0  0
    5.6365   -0.8462   -0.0150 C   0  0  0  0  0  0  0  0  0  0  0  0
    6.6916   -0.5607   -0.8568 C   0  0  0  0  0  0  0  0  0  0  0  0
    6.6442    0.3846   -2.0066 C   0  0  0  0  0  0  0  0  0  0  0  0
    7.8725   -1.2938   -0.5292 C   0  0  0  0  0  0  0  0  0  0  0  0
    7.7244   -2.1385    0.5158 C   0  0  0  0  0  0  0  0  0  0  0  0
    6.1237   -2.0637    1.1353 S   0  0  0  0  0  0  0  0  0  0  0  0
    2.8854   -1.2467    0.2511 S   0  0  0  0  0  0  0  0  0  0  0  0
   -0.7606    1.3071   -0.0314 S   0  0  0  0  0  0  0  0  0  0  0  0
   -4.9330   -0.1791    0.3991 S   0  0  0  0  0  0  0  0  0  0  0  0
   -7.3525   -2.4605    0.8175 Cl  0  0  0  0  0  0  0  0  0  0  0  0
   -7.5803   -1.1249   -1.2022 H   0  0  0  0  0  0  0  0  0  0  0  0
   -6.5303   -0.1640   -2.0509 H   0  0  0  0  0  0  0  0  0  0  0  0
   -8.0174   -0.5371   -2.7148 H   0  0  0  0  0  0  0  0  0  0  0  0
   -9.1857    0.7917   -1.0819 H   0  0  0  0  0  0  0  0  0  0  0  0
   -7.9142    1.7774   -1.7711 H   0  0  0  0  0  0  0  0  0  0  0  0
   -7.7690    0.2467    0.8797 H   0  0  0  0  0  0  0  0  0  0  0  0
   -7.8949    1.9824    0.7134 H   0  0  0  0  0  0  0  0  0  0  0  0
   -5.7538    3.2710   -0.1900 H   0  0  0  0  0  0  0  0  0  0  0  0
   -3.1696    2.8992   -0.1974 H   0  0  0  0  0  0  0  0  0  0  0  0
   -2.4936   -1.7547    0.6459 H   0  0  0  0  0  0  0  0  0  0  0  0
    0.8817   -2.5086    1.5341 H   0  0  0  0  0  0  0  0  0  0  0  0
    0.7657   -2.8692   -0.1920 H   0  0  0  0  0  0  0  0  0  0  0  0
   -0.5730   -3.2639    0.8854 H   0  0  0  0  0  0  0  0  0  0  0  0
    6.9662    1.3806   -1.7011 H   0  0  0  0  0  0  0  0  0  0  0  0
    5.6328    0.4643   -2.4075 H   0  0  0  0  0  0  0  0  0  0  0  0
    7.2971    0.0518   -2.8145 H   0  0  0  0  0  0  0  0  0  0  0  0
    8.7959   -1.1790   -1.0775 H   0  0  0  0  0  0  0  0  0  0  0  0
    8.4897   -2.7775    0.9158 H   0  0  0  0  0  0  0  0  0  0  0  0
  1  2  1  0  0  0  0
  2  3  1  0  0  0  0
  3  4  1  0  0  0  0
  4  5  2  0  0  0  0
  5  6  4  0  0  0  0
  6  7  2  0  0  0  0
  7  8  1  0  0  0  0
  8  9  4  0  0  0  0
  9 10  4  0  0  0  0
 10 11  1  0  0  0  0
 10 12  4  0  0  0  0
 12 13  1  0  0  0  0
 13 14  4  0  0  0  0
 14 15  1  0  0  0  0
 15 16  3  0  0  0  0
 14 17  1  0  0  0  0
 17 18  1  0  0  0  0
 18 19  3  0  0  0  0
 17 20  4  0  0  0  0
 20 21  1  0  0  0  0
 21 22  4  0  0  0  0
 22 23  1  0  0  0  0
 22 24  4  0  0  0  0
 24 25  2  0  0  0  0
 21 26  1  0  0  0  0
 25 26  1  0  0  0  0
 13 27  1  0  0  0  0
 20 27  1  0  0  0  0
  8 28  1  0  0  0  0
 12 28  1  0  0  0  0
  4 29  1  0  0  0  0
  7 29  1  0  0  0  0
  1 31  1  0  0  0  0
  1 32  1  0  0  0  0
  1 33  1  0  0  0  0
  2 34  1  0  0  0  0
  2 35  1  0  0  0  0
  3 36  1  0  0  0  0
  3 37  1  0  0  0  0
  5 38  1  0  0  0  0
  6 39  1  0  0  0  0
  9 40  1  0  0  0  0
 11 41  1  0  0  0  0
 11 42  1  0  0  0  0
 11 43  1  0  0  0  0
 23 44  1  0  0  0  0
 23 45  1  0  0  0  0
 23 46  1  0  0  0  0
 24 47  1  0  0  0  0
 25 48  1  0  0  0  0
M  END
