 xtb: 6.5.1 (fef0646)
          01242316473D

 36 39  0     0  0            999 V2000
    4.0162   -1.0372    1.1560 N   0  0  0  0  0  0  0  0  0  0  0  0
    2.9413   -0.1093    0.7368 C   0  0  0  0  0  0  0  0  0  0  0  0
    3.4076    1.3273    0.9433 C   0  0  0  0  0  0  0  0  0  0  0  0
    4.5678    1.4804    0.1282 O   0  0  0  0  0  0  0  0  0  0  0  0
    5.1697    2.6971    0.0379 C   0  0  0  0  0  0  0  0  0  0  0  0
    6.2465    2.7889   -0.8679 C   0  0  0  0  0  0  0  0  0  0  0  0
    6.6450    1.6915   -1.6847 C   0  0  0  0  0  0  0  0  0  0  0  0
    7.6877    1.7953   -2.5412 C   0  0  0  0  0  0  0  0  0  0  0  0
    6.9491    4.0109   -0.9765 C   0  0  0  0  0  0  0  0  0  0  0  0
    6.5631    5.1297   -0.1971 C   0  0  0  0  0  0  0  0  0  0  0  0
    5.4798    4.9990    0.6691 C   0  0  0  0  0  0  0  0  0  0  0  0
    4.7950    3.8040    0.7885 C   0  0  0  0  0  0  0  0  0  0  0  0
    7.2943    6.3463   -0.3279 C   0  0  0  0  0  0  0  0  0  0  0  0
    8.3439    6.4453   -1.1756 C   0  0  0  0  0  0  0  0  0  0  0  0
    8.7564    5.3373   -1.9746 C   0  0  0  0  0  0  0  0  0  0  0  0
    9.8362    5.4178   -2.8547 C   0  0  0  0  0  0  0  0  0  0  0  0
   10.2083    4.3259   -3.6191 C   0  0  0  0  0  0  0  0  0  0  0  0
    9.5160    3.1330   -3.5270 C   0  0  0  0  0  0  0  0  0  0  0  0
    8.4302    3.0056   -2.6581 C   0  0  0  0  0  0  0  0  0  0  0  0
    8.0438    4.1169   -1.8689 C   0  0  0  0  0  0  0  0  0  0  0  0
    3.7930   -2.0057    0.9006 H   0  0  0  0  0  0  0  0  0  0  0  0
    4.1716   -0.9858    2.1699 H   0  0  0  0  0  0  0  0  0  0  0  0
    4.8842   -0.7527    0.6831 H   0  0  0  0  0  0  0  0  0  0  0  0
    2.0358   -0.2895    1.3135 H   0  0  0  0  0  0  0  0  0  0  0  0
    2.7329   -0.2606   -0.3223 H   0  0  0  0  0  0  0  0  0  0  0  0
    3.6580    1.5168    1.9933 H   0  0  0  0  0  0  0  0  0  0  0  0
    2.6234    2.0247    0.6339 H   0  0  0  0  0  0  0  0  0  0  0  0
    6.0819    0.7756   -1.6194 H   0  0  0  0  0  0  0  0  0  0  0  0
    7.9806    0.9610   -3.1615 H   0  0  0  0  0  0  0  0  0  0  0  0
    5.1745    5.8489    1.2615 H   0  0  0  0  0  0  0  0  0  0  0  0
    3.9666    3.7540    1.4762 H   0  0  0  0  0  0  0  0  0  0  0  0
    6.9881    7.1921    0.2714 H   0  0  0  0  0  0  0  0  0  0  0  0
    8.8950    7.3704   -1.2685 H   0  0  0  0  0  0  0  0  0  0  0  0
   10.3826    6.3467   -2.9352 H   0  0  0  0  0  0  0  0  0  0  0  0
   11.0474    4.4086   -4.2947 H   0  0  0  0  0  0  0  0  0  0  0  0
    9.8128    2.2876   -4.1307 H   0  0  0  0  0  0  0  0  0  0  0  0
  1  2  1  0  0  0  0
  2  3  1  0  0  0  0
  3  4  1  0  0  0  0
  4  5  1  0  0  0  0
  5  6  4  0  0  0  0
  6  7  4  0  0  0  0
  7  8  2  0  0  0  0
  6  9  4  0  0  0  0
  9 10  4  0  0  0  0
 10 11  4  0  0  0  0
  5 12  4  0  0  0  0
 11 12  4  0  0  0  0
 10 13  4  0  0  0  0
 13 14  2  0  0  0  0
 14 15  1  0  0  0  0
 15 16  4  0  0  0  0
 16 17  4  0  0  0  0
 17 18  4  0  0  0  0
  8 19  4  0  0  0  0
 18 19  4  0  0  0  0
  9 20  4  0  0  0  0
 15 20  4  0  0  0  0
 19 20  4  0  0  0  0
  1 21  1  0  0  0  0
  1 22  1  0  0  0  0
  1 23  1  0  0  0  0
  2 24  1  0  0  0  0
  2 25  1  0  0  0  0
  3 26  1  0  0  0  0
  3 27  1  0  0  0  0
  7 28  1  0  0  0  0
  8 29  1  0  0  0  0
 11 30  1  0  0  0  0
 12 31  1  0  0  0  0
 13 32  1  0  0  0  0
 14 33  1  0  0  0  0
 16 34  1  0  0  0  0
 17 35  1  0  0  0  0
 18 36  1  0  0  0  0
M  CHG  1   1   1
M  END
