 xtb: 6.5.1 (fef0646)
          01232313553D

 21 21  0     0  0            999 V2000
    2.9975    0.6227   -1.2028 N   0  0  0  0  0  0  0  0  0  0  0  0
    2.4432    1.5958   -0.2146 C   0  0  0  0  0  0  0  0  0  0  0  0
    2.9148    1.1799    1.1797 C   0  0  0  0  0  0  0  0  0  0  0  0
    4.4218    1.1388    1.1987 C   0  0  0  0  0  0  0  0  0  0  0  0
    5.1576    2.2850    1.4813 C   0  0  0  0  0  0  0  0  0  0  0  0
    6.5380    2.2705    1.4255 C   0  0  0  0  0  0  0  0  0  0  0  0
    7.2000    1.1003    1.0739 C   0  0  0  0  0  0  0  0  0  0  0  0
    9.0998    1.0778    0.9763 Br  0  0  0  0  0  0  0  0  0  0  0  0
    6.4849   -0.0557    0.7972 C   0  0  0  0  0  0  0  0  0  0  0  0
    5.1006   -0.0307    0.8531 C   0  0  0  0  0  0  0  0  0  0  0  0
    3.0039    0.9925   -2.1589 H   0  0  0  0  0  0  0  0  0  0  0  0
    2.4627   -0.2537   -1.1899 H   0  0  0  0  0  0  0  0  0  0  0  0
    3.9733    0.4142   -0.8799 H   0  0  0  0  0  0  0  0  0  0  0  0
    1.3560    1.6133   -0.2836 H   0  0  0  0  0  0  0  0  0  0  0  0
    2.8314    2.5866   -0.4544 H   0  0  0  0  0  0  0  0  0  0  0  0
    2.5001    0.2056    1.4420 H   0  0  0  0  0  0  0  0  0  0  0  0
    2.5470    1.9049    1.9040 H   0  0  0  0  0  0  0  0  0  0  0  0
    4.6475    3.1937    1.7620 H   0  0  0  0  0  0  0  0  0  0  0  0
    7.1026    3.1591    1.6576 H   0  0  0  0  0  0  0  0  0  0  0  0
    7.0055   -0.9670    0.5506 H   0  0  0  0  0  0  0  0  0  0  0  0
    4.5604   -0.9576    0.7069 H   0  0  0  0  0  0  0  0  0  0  0  0
  1  2  1  0  0  0  0
  2  3  1  0  0  0  0
  3  4  1  0  0  0  0
  4  5  4  0  0  0  0
  5  6  4  0  0  0  0
  6  7  4  0  0  0  0
  7  8  1  0  0  0  0
  7  9  4  0  0  0  0
  4 10  4  0  0  0  0
  9 10  4  0  0  0  0
  1 11  1  0  0  0  0
  1 12  1  0  0  0  0
  1 13  1  0  0  0  0
  2 14  1  0  0  0  0
  2 15  1  0  0  0  0
  3 16  1  0  0  0  0
  3 17  1  0  0  0  0
  5 18  1  0  0  0  0
  6 19  1  0  0  0  0
  9 20  1  0  0  0  0
 10 21  1  0  0  0  0
M  CHG  1   1   1
M  END
