 xtb: 6.5.1 (fef0646)
          01242316583D

 25 24  0     0  0            999 V2000
   -1.1157   -0.7092   -0.0612 N   0  0  0  0  0  0  0  0  0  0  0  0
   -0.6477    0.6873    0.1733 C   0  0  0  0  0  0  0  0  0  0  0  0
    0.8773    0.8514    0.0812 C   0  0  0  0  0  0  0  0  0  0  0  0
    1.4307    0.5065   -1.3200 C   0  0  0  0  0  0  0  0  0  0  0  0
    2.9446    0.7728   -1.3989 C   0  0  0  0  0  0  0  0  0  0  0  0
    3.7014   -0.0146   -0.3135 C   0  0  0  0  0  0  0  0  0  0  0  0
    3.1457    0.2943    1.0888 C   0  0  0  0  0  0  0  0  0  0  0  0
    1.6306    0.0308    1.1525 C   0  0  0  0  0  0  0  0  0  0  0  0
   -4.6155   -0.8752    0.2435 Cl  0  0  0  0  0  0  0  0  0  0  0  0
   -0.7096   -1.3611    0.6240 H   0  0  0  0  0  0  0  0  0  0  0  0
   -0.8515   -1.0406   -0.9993 H   0  0  0  0  0  0  0  0  0  0  0  0
   -2.1461   -0.7840    0.0146 H   0  0  0  0  0  0  0  0  0  0  0  0
   -0.9908    1.0218    1.1593 H   0  0  0  0  0  0  0  0  0  0  0  0
   -1.1302    1.3553   -0.5495 H   0  0  0  0  0  0  0  0  0  0  0  0
    1.1190    1.9119    0.2657 H   0  0  0  0  0  0  0  0  0  0  0  0
    0.8851    1.0612   -2.0939 H   0  0  0  0  0  0  0  0  0  0  0  0
    1.2401   -0.5519   -1.5271 H   0  0  0  0  0  0  0  0  0  0  0  0
    3.1322    1.8455   -1.2671 H   0  0  0  0  0  0  0  0  0  0  0  0
    3.3309    0.5300   -2.3984 H   0  0  0  0  0  0  0  0  0  0  0  0
    4.7788    0.1964   -0.3599 H   0  0  0  0  0  0  0  0  0  0  0  0
    3.6069   -1.0894   -0.5126 H   0  0  0  0  0  0  0  0  0  0  0  0
    3.3425    1.3450    1.3346 H   0  0  0  0  0  0  0  0  0  0  0  0
    3.6745   -0.2884    1.8556 H   0  0  0  0  0  0  0  0  0  0  0  0
    1.2280    0.2444    2.1508 H   0  0  0  0  0  0  0  0  0  0  0  0
    1.4432   -1.0345    0.9814 H   0  0  0  0  0  0  0  0  0  0  0  0
  1  2  1  0  0  0  0
  2  3  1  0  0  0  0
  3  4  1  0  0  0  0
  4  5  1  0  0  0  0
  5  6  1  0  0  0  0
  6  7  1  0  0  0  0
  3  8  1  0  0  0  0
  7  8  1  0  0  0  0
  1 10  1  0  0  0  0
  1 11  1  0  0  0  0
  1 12  1  0  0  0  0
  2 13  1  0  0  0  0
  2 14  1  0  0  0  0
  3 15  1  0  0  0  0
  4 16  1  0  0  0  0
  4 17  1  0  0  0  0
  5 18  1  0  0  0  0
  5 19  1  0  0  0  0
  6 20  1  0  0  0  0
  6 21  1  0  0  0  0
  7 22  1  0  0  0  0
  7 23  1  0  0  0  0
  8 24  1  0  0  0  0
  8 25  1  0  0  0  0
M  END
