 xtb: 6.5.1 (fef0646)
          01242314553D

 19 18  0     0  0            999 V2000
    1.9142   -0.0418    0.1817 N   0  0  0  0  0  0  0  0  0  0  0  0
    0.7145    0.0925   -0.6782 C   0  0  0  0  0  0  0  0  0  0  0  0
   -0.1314   -1.1862   -0.6155 C   0  0  0  0  0  0  0  0  0  0  0  0
   -1.2622   -0.8493    0.3541 C   0  0  0  0  0  0  0  0  0  0  0  0
   -1.5770    0.6003    0.0020 C   0  0  0  0  0  0  0  0  0  0  0  0
   -0.1865    1.2211   -0.1471 C   0  0  0  0  0  0  0  0  0  0  0  0
    1.4206   -0.5951    3.1493 Cl  0  0  0  0  0  0  0  0  0  0  0  0
    2.5190   -0.8026   -0.1373 H   0  0  0  0  0  0  0  0  0  0  0  0
    1.6452   -0.2572    1.1775 H   0  0  0  0  0  0  0  0  0  0  0  0
    2.4507    0.8290    0.2063 H   0  0  0  0  0  0  0  0  0  0  0  0
    1.0520    0.2925   -1.6966 H   0  0  0  0  0  0  0  0  0  0  0  0
    0.4476   -2.0421   -0.2785 H   0  0  0  0  0  0  0  0  0  0  0  0
   -0.5460   -1.4099   -1.5973 H   0  0  0  0  0  0  0  0  0  0  0  0
   -0.8999   -0.9106    1.3815 H   0  0  0  0  0  0  0  0  0  0  0  0
   -2.1208   -1.5094    0.2503 H   0  0  0  0  0  0  0  0  0  0  0  0
   -2.1715    1.0991    0.7645 H   0  0  0  0  0  0  0  0  0  0  0  0
   -2.1201    0.6419   -0.9430 H   0  0  0  0  0  0  0  0  0  0  0  0
    0.1665    1.5215    0.8390 H   0  0  0  0  0  0  0  0  0  0  0  0
   -0.1954    2.0925   -0.7970 H   0  0  0  0  0  0  0  0  0  0  0  0
  1  2  1  0  0  0  0
  2  3  1  0  0  0  0
  3  4  1  0  0  0  0
  4  5  1  0  0  0  0
  2  6  1  0  0  0  0
  5  6  1  0  0  0  0
  1  8  1  0  0  0  0
  1  9  1  0  0  0  0
  1 10  1  0  0  0  0
  2 11  1  0  0  0  0
  3 12  1  0  0  0  0
  3 13  1  0  0  0  0
  4 14  1  0  0  0  0
  4 15  1  0  0  0  0
  5 16  1  0  0  0  0
  5 17  1  0  0  0  0
  6 18  1  0  0  0  0
  6 19  1  0  0  0  0
M  END
