  27

 N          0.9355587165        0.2662151534       -0.0983267215
 C          2.4132573917        0.0718672769        0.0279394117
 C          2.8768768793       -1.0883450522       -0.8531815378
 C          2.3306503984       -2.4304658801       -0.3597176050
 C          2.7912649826       -3.5581363820       -1.2800632587
 C          4.3152817042       -3.6236124312       -1.3821192786
 C          4.6961102825       -4.6277088345       -2.4757353499
 O          5.8505108794       -5.2736260457       -2.3039737191
 O          4.0240411285       -4.7937426518       -3.4498615693
 C          4.8809879781       -2.2601174310       -1.8038813478
 C          4.4076165016       -1.1484545413       -0.8708074211
 H          0.5848683696        0.9732684857        0.5578114419
 H          0.4753177074       -0.6364032779        0.0910627433
 H          0.6989583489        0.5526436496       -1.0567905792
 H          2.6446657150       -0.1351622020        1.0740652253
 H          2.9116368322        0.9974549074       -0.2634362783
 H          2.5341483354       -0.9173939010       -1.8795388288
 H          1.2359753418       -2.4410068745       -0.3374659957
 H          2.6915644044       -2.6183635634        0.6540053869
 H          2.3895239692       -3.4128287752       -2.2842420610
 H          2.4105414850       -4.5108728252       -0.9108528778
 H          4.7428305608       -3.9214841493       -0.4186000849
 H          6.3052007622       -5.0680084905       -1.4764770663
 H          4.5522534950       -2.0472426742       -2.8230667518
 H          5.9715048228       -2.2892473923       -1.8066806878
 H          4.8175755286       -0.1966507172       -1.2110429118
 H          4.7760174790       -1.3330753802        0.1399477232
