 xtb: 6.5.1 (fef0646)
          01242315173D

 16 15  0     0  0            999 V2000
    1.3302   -0.5792    0.1315 N   0  0  0  0  0  0  0  0  0  0  0  0
    2.6690   -0.0447   -0.2051 C   0  0  0  0  0  0  0  0  0  0  0  0
    3.0190    1.0737    0.7145 C   0  0  0  0  0  0  0  0  0  0  0  0
    3.3457    2.3585    0.4193 C   0  0  0  0  0  0  0  0  0  0  0  0
    3.5873    3.1448    1.5695 C   0  0  0  0  0  0  0  0  0  0  0  0
    3.4357    2.4489    2.7234 C   0  0  0  0  0  0  0  0  0  0  0  0
    3.0029    0.8198    2.4331 S   0  0  0  0  0  0  0  0  0  0  0  0
   -0.5401    1.8192    0.3025 Cl  0  0  0  0  0  0  0  0  0  0  0  0
    1.0247   -1.2815   -0.5460 H   0  0  0  0  0  0  0  0  0  0  0  0
    0.6306    0.2087    0.1408 H   0  0  0  0  0  0  0  0  0  0  0  0
    1.3358   -0.9787    1.0744 H   0  0  0  0  0  0  0  0  0  0  0  0
    2.6583    0.3363   -1.2261 H   0  0  0  0  0  0  0  0  0  0  0  0
    3.4044   -0.8480   -0.1193 H   0  0  0  0  0  0  0  0  0  0  0  0
    3.4049    2.7443   -0.5818 H   0  0  0  0  0  0  0  0  0  0  0  0
    3.8529    4.1866    1.5367 H   0  0  0  0  0  0  0  0  0  0  0  0
    3.5458    2.7913    3.7334 H   0  0  0  0  0  0  0  0  0  0  0  0
  1  2  1  0  0  0  0
  2  3  1  0  0  0  0
  3  4  2  0  0  0  0
  4  5  4  0  0  0  0
  5  6  2  0  0  0  0
  3  7  1  0  0  0  0
  6  7  1  0  0  0  0
  1  9  1  0  0  0  0
  1 10  1  0  0  0  0
  1 11  1  0  0  0  0
  2 12  1  0  0  0  0
  2 13  1  0  0  0  0
  4 14  1  0  0  0  0
  5 15  1  0  0  0  0
  6 16  1  0  0  0  0
M  END
