25
 xtb: 6.5.1 (fef0646)
N           -1.52039645256993        0.30681303614936        0.68969736697589
C           -0.56874739275915       -0.17998445500641       -0.35106659726467
C            0.82860170131066        0.44806349064550       -0.24737230054869
C            1.69845833847134        0.09862793744534       -1.47933636457858
C            3.09087635073254        0.74733760373112       -1.39376991138060
C            3.81180445064566        0.33686237269217       -0.09809183752786
C            2.96057978480339        0.67955755545202        1.13706351444398
C            1.56606797239805        0.03381242074304        1.04756311157998
Cl          -4.45510242518591       -0.96227849747550        0.21748430274446
H           -1.55837379672663        1.36120852673536        0.67552231082151
H           -1.16474465534481        0.07726479127051        1.65120719891193
H           -2.43562097163902       -0.05405863910157        0.58440512364265
H           -0.96573073977158        0.04256048965315       -1.33114135399990
H           -0.46014673408873       -1.25333192072867       -0.27900644238930
H            0.74035615422613        1.55330415812191       -0.22175006554602
H            1.20077420482919        0.39450072020524       -2.40140095015377
H            1.81929075101010       -0.98710071697836       -1.53422154993964
H            3.01164469668364        1.83836622060812       -1.42768261139701
H            3.71374312814538        0.48667936527117       -2.28279208561182
H            4.82928513408609        0.80637396397848       -0.04695430127355
H            4.02901446993296       -0.74457306403498       -0.12380528645359
H            2.88817925243593        1.77270509388098        1.20536185820727
H            3.50732369229080        0.37739814931672        2.05365630668875
H            0.99863776672679        0.29662419954000        1.93241927295439
H            1.68989099621260       -1.04926958466491        1.06435867925431
