21
0.705
N           -1.24184  -1.71544  -0.62360
C           -0.33765  -2.06307   0.51165
C            0.71423  -0.98808   0.77214
C            1.69916  -0.81346  -0.38359
C            2.79499   0.21934  -0.10133
C            2.26278   1.63883   0.03489
Cl          -2.29133   1.57100  -0.03266
H           -1.64752  -0.77429  -0.48277
H           -2.01818  -2.38498  -0.72259
H           -0.73096  -1.69550  -1.51668
H            0.15255  -3.02328   0.31226
H           -0.93933  -2.22444   1.41522
H            1.27164  -1.21910   1.68873
H            0.21077  -0.03603   0.97421
H            1.15586  -0.52349  -1.29017
H            2.15000  -1.78635  -0.61774
H            3.54841   0.18567  -0.90044
H            3.33525  -0.06696   0.81036
H            1.71528   1.94231  -0.85940
H            3.06498   2.36398   0.18937
H            1.57757   1.73236   0.87891
