22

N          1.26836        0.35169        0.00597
C          2.71529        0.16603        0.02462
C          3.31663        1.23567        0.93579
C          3.11382       -1.22882        0.44621
C          3.86824       -2.03708       -0.42112
C          4.24876       -3.32757       -0.04291
C          3.87591       -3.82873        1.20094
C          3.12359       -3.04391        2.06913
C          2.74392       -1.75442        1.69653
Cl        -1.10942       -0.84303       -0.91112
H          0.91160        1.24380       -0.34197
H          0.76886        0.13816        0.87608
H          0.75653       -0.33016       -0.62026
H          3.04831        0.35701       -1.00259
H          2.97420        1.13306        1.97202
H          3.04086        2.23977        0.59464
H          4.41041        1.17381        0.94136
H          4.16576       -1.67725       -1.40435
H          4.82658       -3.94631       -0.72682
H          4.16463       -4.83665        1.48927
H          2.82296       -3.44334        3.03519
H          2.15049       -1.17277        2.39903
