 xtb: 6.5.1 (fef0646)
          01232313553D

 22 21  0     0  0            999 V2000
    1.1027   -0.0732   -0.3157 N   0  0  0  0  0  0  0  0  0  0  0  0
    2.5607   -0.0495   -0.2205 C   0  0  0  0  0  0  0  0  0  0  0  0
    3.0106    1.1746    0.5837 C   0  0  0  0  0  0  0  0  0  0  0  0
    4.4916    1.1240    0.8238 C   0  0  0  0  0  0  0  0  0  0  0  0
    5.3791    1.7343   -0.0536 C   0  0  0  0  0  0  0  0  0  0  0  0
    6.7454    1.6580    0.1488 C   0  0  0  0  0  0  0  0  0  0  0  0
    7.2241    0.9585    1.2424 C   0  0  0  0  0  0  0  0  0  0  0  0
    9.1065    0.8487    1.5315 Br  0  0  0  0  0  0  0  0  0  0  0  0
    6.3616    0.3394    2.1306 C   0  0  0  0  0  0  0  0  0  0  0  0
    4.9990    0.4256    1.9133 C   0  0  0  0  0  0  0  0  0  0  0  0
    0.0418   -0.2381    2.4195 Cl  0  0  0  0  0  0  0  0  0  0  0  0
    0.7813   -0.8859   -0.8301 H   0  0  0  0  0  0  0  0  0  0  0  0
    0.7553    0.7636   -0.7732 H   0  0  0  0  0  0  0  0  0  0  0  0
    0.5214   -0.1563    1.1409 H   0  0  0  0  0  0  0  0  0  0  0  0
    3.0452   -0.0380   -1.2072 H   0  0  0  0  0  0  0  0  0  0  0  0
    2.8714   -0.9585    0.2998 H   0  0  0  0  0  0  0  0  0  0  0  0
    2.4756    1.1754    1.5331 H   0  0  0  0  0  0  0  0  0  0  0  0
    2.7496    2.0824    0.0365 H   0  0  0  0  0  0  0  0  0  0  0  0
    5.0020    2.2824   -0.9047 H   0  0  0  0  0  0  0  0  0  0  0  0
    7.4313    2.1364   -0.5332 H   0  0  0  0  0  0  0  0  0  0  0  0
    6.7510   -0.1998    2.9802 H   0  0  0  0  0  0  0  0  0  0  0  0
    4.3187   -0.0510    2.6029 H   0  0  0  0  0  0  0  0  0  0  0  0
  1  2  1  0  0  0  0
  2  3  1  0  0  0  0
  3  4  1  0  0  0  0
  4  5  4  0  0  0  0
  5  6  4  0  0  0  0
  6  7  4  0  0  0  0
  7  8  1  0  0  0  0
  7  9  4  0  0  0  0
  4 10  4  0  0  0  0
  9 10  4  0  0  0  0
  1 12  1  0  0  0  0
  1 13  1  0  0  0  0
 11 14  1  0  0  0  0
  2 15  1  0  0  0  0
  2 16  1  0  0  0  0
  3 17  1  0  0  0  0
  3 18  1  0  0  0  0
  5 19  1  0  0  0  0
  6 20  1  0  0  0  0
  9 21  1  0  0  0  0
 10 22  1  0  0  0  0
M  END
