 xtb: 6.5.1 (fef0646)
          01242310093D

 22 21  0     0  0            999 V2000
   -1.2379    1.4696    1.2629 N   0  0  0  0  0  0  0  0  0  0  0  0
   -0.6758    2.2919    0.1573 C   0  0  0  0  0  0  0  0  0  0  0  0
   -0.1408    1.4266   -0.9814 C   0  0  0  0  0  0  0  0  0  0  0  0
    0.8853    0.4322   -0.5212 C   0  0  0  0  0  0  0  0  0  0  0  0
    0.5045   -0.8479   -0.1415 C   0  0  0  0  0  0  0  0  0  0  0  0
    1.4389   -1.7540    0.3202 C   0  0  0  0  0  0  0  0  0  0  0  0
    2.7673   -1.3887    0.4130 C   0  0  0  0  0  0  0  0  0  0  0  0
    3.1582   -0.1158    0.0471 C   0  0  0  0  0  0  0  0  0  0  0  0
    2.2220    0.7899   -0.4136 C   0  0  0  0  0  0  0  0  0  0  0  0
   -3.0862   -1.1075   -0.1858 Cl  0  0  0  0  0  0  0  0  0  0  0  0
   -1.9236    0.7887    0.8962 H   0  0  0  0  0  0  0  0  0  0  0  0
   -1.7059    2.0415    1.9862 H   0  0  0  0  0  0  0  0  0  0  0  0
   -0.4928    0.9203    1.7283 H   0  0  0  0  0  0  0  0  0  0  0  0
    0.1273    2.9264    0.5512 H   0  0  0  0  0  0  0  0  0  0  0  0
   -1.4428    2.9818   -0.2175 H   0  0  0  0  0  0  0  0  0  0  0  0
    0.2895    2.0518   -1.7732 H   0  0  0  0  0  0  0  0  0  0  0  0
   -0.9699    0.8873   -1.4535 H   0  0  0  0  0  0  0  0  0  0  0  0
   -0.5362   -1.1237   -0.1995 H   0  0  0  0  0  0  0  0  0  0  0  0
    1.1298   -2.7458    0.6117 H   0  0  0  0  0  0  0  0  0  0  0  0
    3.4982   -2.0956    0.7736 H   0  0  0  0  0  0  0  0  0  0  0  0
    4.1951    0.1726    0.1227 H   0  0  0  0  0  0  0  0  0  0  0  0
    2.5233    1.7869   -0.6920 H   0  0  0  0  0  0  0  0  0  0  0  0
  1  2  1  0  0  0  0
  2  3  1  0  0  0  0
  3  4  1  0  0  0  0
  4  5  4  0  0  0  0
  5  6  4  0  0  0  0
  6  7  4  0  0  0  0
  7  8  4  0  0  0  0
  4  9  4  0  0  0  0
  8  9  4  0  0  0  0
  1 11  1  0  0  0  0
  1 12  1  0  0  0  0
  1 13  1  0  0  0  0
  2 14  1  0  0  0  0
  2 15  1  0  0  0  0
  3 16  1  0  0  0  0
  3 17  1  0  0  0  0
  5 18  1  0  0  0  0
  6 19  1  0  0  0  0
  7 20  1  0  0  0  0
  8 21  1  0  0  0  0
  9 22  1  0  0  0  0
M  END
