21
 xtb: 6.5.1 (fef0646)
N           -2.52882767204395       -0.73085358270568       -0.93930082250855
C           -2.44885885269348        0.50498197634567       -0.10944234955785
C           -1.45590094895098        0.35177890409553        1.04246623992680
C           -0.05353281665839        0.17181855049695        0.54333250984175
C            0.65220097048071        1.25618368773899        0.01167842680001
C            1.94221320416304        1.09385050599937       -0.48064420721374
C            2.54736430573629       -0.15705102751077       -0.44894844964686
C            1.85928846531694       -1.24429823033915        0.07477911989934
C            0.56641970284391       -1.08223863219541        0.56392751546683
H           -2.97160464272832       -1.50571221095583       -0.43184098500063
H           -1.59547032033089       -1.00676876190474       -1.25611417768305
H           -3.12004530408768       -0.55017148529480       -1.80351531637076
H           -3.45866457040689        0.73374659214230        0.29305044204545
H           -2.18143385962313        1.35526401418433       -0.72874515271725
H           -1.72771748628398       -0.50154036073532        1.66140097634852
H           -1.48499965699893        1.22411466469765        1.69577404963980
H            0.19266240913879        2.22464559985839       -0.02218169837215
H            2.48344989627765        1.93376735065981       -0.88624519913621
H            3.55757714090764       -0.28734004375089       -0.81511885784268
H            2.33377012423701       -2.21522775130165        0.12110723933349
H            0.04399505109849       -1.92255841097192        0.98442974404630
