43
1.645
N            4.25320  -0.10626   1.10163
C            4.49252  -0.98599  -0.06626
C            4.51963  -0.13841  -1.33112
O            3.48770   0.84428  -1.30887
C            2.19226   0.35409  -1.27517
C            1.80709  -0.89793  -1.74384
C            0.50234  -1.33235  -1.64594
C           -0.50088  -0.54901  -1.07526
C           -0.15436   0.74466  -0.59270
C           -1.12878   1.59490   0.00443
C           -0.72774   2.84449   0.46207
C            0.58695   3.27376   0.34869
C            1.53084   2.46414  -0.22347
C            1.18599   1.19581  -0.70305
C           -1.87347  -1.01139  -0.96185
C           -2.27244  -2.26381  -1.41539
C           -3.58758  -2.69699  -1.30133
C           -4.53525  -1.89342  -0.73290
C           -4.19333  -0.61403  -0.25391
C           -5.15963   0.22387   0.33493
C           -4.81442   1.46224   0.79605
C           -3.50352   1.91339   0.69058
C           -2.50681   1.13224   0.11955
C           -2.85174  -0.16179  -0.36603
Cl           3.56283  -1.90396   3.97151
H            4.07135  -0.63362   1.97425
H            3.43314   0.49079   0.90127
H            5.05592   0.52895   1.26150
H            3.68580  -1.72554  -0.12686
H            5.41974  -1.55904   0.05548
H            4.44632  -0.72894  -2.25050
H            5.46113   0.41890  -1.39317
H            2.53954  -1.53468  -2.20686
H            0.26181  -2.30960  -2.02567
H           -1.44441   3.50523   0.91679
H            0.86568   4.25072   0.71161
H            2.55176   2.79480  -0.32356
H           -1.55443  -2.92454  -1.86819
H           -3.86135  -3.67520  -1.66458
H           -5.55477  -2.23091  -0.64509
H           -6.17587  -0.12485   0.41723
H           -5.56303   2.09576   1.24541
H           -3.26880   2.89428   1.06429
