26
1.343
N           -4.51290  -0.66919  -0.97352
C           -4.62550   0.47490  -0.02456
C           -3.49217   1.48164  -0.21693
C           -2.16657   0.92703   0.17367
C           -1.57435   1.08699   1.38486
C           -0.31546   0.44027   1.49989
C            0.06812  -0.22576   0.37243
C            1.29853  -0.96217   0.20972
C            1.68578  -1.61863  -0.92321
C            2.94945  -2.25774  -0.81102
C            3.52733  -2.09351   0.40065
S            2.52600  -1.14406   1.44128
S           -1.15811  -0.05085  -0.85692
Cl           2.11055   2.34410  -0.79117
H           -5.14496  -1.44560  -0.73733
H           -3.54522  -1.01406  -0.96094
H           -4.71348  -0.36985  -1.93930
H           -4.60341   0.10233   1.00642
H           -5.60281   0.95779  -0.14554
H           -3.68347   2.39452   0.35926
H           -3.45189   1.79381  -1.26573
H           -2.02406   1.65308   2.18572
H            0.28957   0.47020   2.39222
H            1.08317  -1.64225  -1.81737
H            3.40091  -2.81827  -1.61599
H            4.47953  -2.49237   0.69475
