26
1.257
N           -4.73855  -1.12702  -0.02668
C           -5.04935   0.22314  -0.57845
C           -4.48303   1.35776   0.27861
C           -2.99650   1.47010   0.23391
C           -2.29067   2.62824   0.31343
C           -0.87958   2.45528   0.26630
C           -0.48149   1.15289   0.15127
C            0.87948   0.67416   0.08357
C            2.00860   1.44327   0.12491
C            3.21381   0.69634   0.03794
C            3.01287  -0.63612  -0.06930
S            1.32679  -1.00897  -0.06627
S           -1.89411   0.13292   0.09579
Cl           5.55874  -2.90178  -0.30750
H           -5.06332  -1.88578  -0.64056
H           -5.16580  -1.25564   0.89941
H           -3.72049  -1.21827   0.08801
H           -6.13676   0.32740  -0.67995
H           -4.64903   0.30599  -1.59554
H           -4.79424   1.21822   1.31919
H           -4.91596   2.31582  -0.03294
H           -2.76313   3.59367   0.40984
H           -0.18571   3.27938   0.31958
H            1.98721   2.51777   0.21519
H            4.19296   1.15141   0.05621
H            3.78457  -1.37883  -0.14666
