26
0.807
N           -5.01308  -1.45490  -0.21665
C           -5.11466  -0.15140   0.50047
C           -4.34166   0.97028  -0.19735
C           -2.85893   0.82499  -0.12657
C           -1.97052   1.85100  -0.05744
C           -0.60926   1.44047  -0.01999
C           -0.43538   0.08692  -0.06199
C            0.83225  -0.60217  -0.04064
C            1.00079  -1.95637  -0.08868
C            2.36055  -2.36599  -0.05268
C            3.22944  -1.33250   0.02266
S            2.39333   0.18094   0.05157
S           -1.99652  -0.68501  -0.14490
Cl           5.15393   1.58959   0.21886
H           -5.42088  -1.39186  -1.15811
H           -5.48205  -2.21846   0.28869
H           -4.02078  -1.70208  -0.32680
H           -4.73950  -0.26461   1.52436
H           -6.17260   0.12024   0.60192
H           -4.61894   1.94038   0.23204
H           -4.64035   1.01805  -1.24978
H           -2.27470   2.88618  -0.03891
H            0.21791   2.13068   0.03475
H            0.17242  -2.64445  -0.14846
H            2.66622  -3.40118  -0.08273
H            4.29854  -1.41977   0.06046
