22
 xtb: 6.5.1 (fef0646)
N           -3.06073844105834       -0.63612128629779       -1.01712295152173
C           -3.18333447151129        0.48989104581359       -0.03937489181207
C           -2.33034565560742        0.27927716425496        1.21224757518669
C           -0.87463184462626        0.23922756100840        0.90457139063330
C           -0.15754662611774       -0.94305310977718        1.03723644015946
F           -0.77602099411599       -2.07431870327414        1.41238554251747
C            1.19833790131091       -0.97344568983846        0.74418053538228
F            1.88740579411228       -2.12076157461042        0.85915609496724
C            1.83959726322377        0.17528274784341        0.30815628985701
F            3.15006779026189        0.14228924498969        0.01098395725631
C            1.12502067096948        1.35371563222027        0.16071118277664
F            1.74462543289013        2.46120319967556       -0.27860366736633
C           -0.23062922079372        1.38422422947494        0.45432470301548
F           -0.92254828634560        2.51911267440690        0.26553439375065
Cl          -0.09061688691103       -0.90502877269136       -2.38554213801541
H           -3.75493198869282       -0.48429293967070       -1.76859008366325
H           -3.37354486110047       -1.51269988889515       -0.51745384108882
H           -2.16639160405822       -0.72206858870631       -1.34012803944595
H           -4.25463744593594        0.64989868289784        0.29639500536336
H           -2.89858960678382        1.43216156557539       -0.50136812624200
H           -2.61429132055486       -0.65015894498630        1.73252131203329
H           -2.49858183059264        1.08489278463690        1.96989687454858
