 xtb: 6.5.1 (fef0646)
          01242316593D

 22 21  0     0  0            999 V2000
   -3.1507   -0.6208   -0.9514 N   0  0  0  0  0  0  0  0  0  0  0  0
   -3.2164    0.5115    0.0170 C   0  0  0  0  0  0  0  0  0  0  0  0
   -2.3344    0.2894    1.2455 C   0  0  0  0  0  0  0  0  0  0  0  0
   -0.8843    0.2421    0.9108 C   0  0  0  0  0  0  0  0  0  0  0  0
   -0.1685   -0.9418    1.0380 C   0  0  0  0  0  0  0  0  0  0  0  0
   -0.7905   -2.0707    1.4197 F   0  0  0  0  0  0  0  0  0  0  0  0
    1.1856   -0.9754    0.7371 C   0  0  0  0  0  0  0  0  0  0  0  0
    1.8690   -2.1242    0.8496 F   0  0  0  0  0  0  0  0  0  0  0  0
    1.8272    0.1722    0.2985 C   0  0  0  0  0  0  0  0  0  0  0  0
    3.1333    0.1367   -0.0038 F   0  0  0  0  0  0  0  0  0  0  0  0
    1.1137    1.3515    0.1537 C   0  0  0  0  0  0  0  0  0  0  0  0
    1.7300    2.4578   -0.2889 F   0  0  0  0  0  0  0  0  0  0  0  0
   -0.2402    1.3850    0.4550 C   0  0  0  0  0  0  0  0  0  0  0  0
   -0.9332    2.5222    0.2721 F   0  0  0  0  0  0  0  0  0  0  0  0
    0.0971   -0.9331   -2.4738 Cl  0  0  0  0  0  0  0  0  0  0  0  0
   -3.7809   -0.4755   -1.7488 H   0  0  0  0  0  0  0  0  0  0  0  0
   -3.4043   -1.5055   -0.4972 H   0  0  0  0  0  0  0  0  0  0  0  0
   -2.1935   -0.7264   -1.3247 H   0  0  0  0  0  0  0  0  0  0  0  0
   -4.2610    0.6625    0.3205 H   0  0  0  0  0  0  0  0  0  0  0  0
   -2.9071    1.4360   -0.4887 H   0  0  0  0  0  0  0  0  0  0  0  0
   -2.6141   -0.6472    1.7431 H   0  0  0  0  0  0  0  0  0  0  0  0
   -2.4936    1.0871    1.9816 H   0  0  0  0  0  0  0  0  0  0  0  0
  1  2  1  0  0  0  0
  2  3  1  0  0  0  0
  3  4  1  0  0  0  0
  4  5  4  0  0  0  0
  5  6  1  0  0  0  0
  5  7  4  0  0  0  0
  7  8  1  0  0  0  0
  7  9  4  0  0  0  0
  9 10  1  0  0  0  0
  9 11  4  0  0  0  0
 11 12  1  0  0  0  0
  4 13  4  0  0  0  0
 11 13  4  0  0  0  0
 13 14  1  0  0  0  0
  1 16  1  0  0  0  0
  1 17  1  0  0  0  0
  1 18  1  0  0  0  0
  2 19  1  0  0  0  0
  2 20  1  0  0  0  0
  3 21  1  0  0  0  0
  3 22  1  0  0  0  0
M  END
