27
 xtb: 6.5.1 (fef0646)
N           -3.29833650220012        0.04495538294142       -0.39054899947461
C           -2.31944524091959        0.40821269126886        0.67347875165326
C           -1.07799295082879       -0.48090126762395        0.67377209271002
C           -0.18654210885281       -0.31852549963913       -0.57346923419232
C            0.94624599085451       -1.38109062127156       -0.61428994565799
C            2.05137948817123       -1.10056969950649        0.41980619542001
C            2.62936176661001        0.31519762916394        0.25530821236317
C            1.52097001093049        1.37848312155774        0.32230130033537
C            0.42237193318150        1.10218226373532       -0.71876669202635
H           -2.83585847923562        0.08282685820653       -1.32906181400440
H           -4.09241685507220        0.71677152575352       -0.41481204718228
H           -3.67296971614996       -0.90009125677618       -0.25591835746843
H           -2.83393242213513        0.32958555579413        1.64723892855190
H           -2.04339525465541        1.45983909692609        0.58413309044813
H           -1.37841912006964       -1.51961254260116        0.77106248055428
H           -0.47262346365998       -0.26627320465314        1.56560875675786
H           -0.82957209547985       -0.50123201201971       -1.45104439679944
H            1.38810877814404       -1.41816785686025       -1.60774154666943
H            0.51846669173664       -2.38228987574444       -0.44148052894295
H            2.84553934790407       -1.85360539464086        0.35277374744163
H            1.64533140571604       -1.20966552020095        1.43962014600302
H            3.14558050850873        0.37753389102430       -0.71069294137264
H            3.39882131642511        0.50974752263346        1.01209012484680
H            1.94702808012703        2.38005662286088        0.16414453039493
H            1.08732474184177        1.39754030436235        1.31836750094032
H            0.84807369770929        1.20349421412813       -1.73022850303587
H           -0.36126512830281        1.85975726808981       -0.66466930787441
