49

N          2.95726        0.42883        1.23361
C          2.48437        1.39192        0.20236
C          3.59773        2.36096       -0.19925
C          4.76052        1.65553       -0.83502
C          4.94862        1.34421       -2.16507
C          6.19335        0.68153       -2.39252
C          6.93644        0.51557       -1.23866
C          8.26291       -0.04742       -1.11289
C          9.19409        0.22153       -0.13452
C         10.46298       -0.41872       -0.35191
C         11.62020       -0.19605        0.57368
C         10.45374       -1.19044       -1.50885
C         11.54517       -1.98980       -2.10077
C         12.49825       -2.64152       -1.29162
C         13.62098       -3.33661       -1.78133
C         13.87564       -3.56659       -3.14624
C         15.00086       -4.41343       -3.57622
C         15.51320       -5.57362       -2.98728
C         15.01821       -6.27964       -1.76146
C         16.63840       -6.08266       -3.72171
C         16.95127       -5.32060       -4.81861
S         15.94199       -3.95889       -4.94674
C         12.94278       -2.95746       -4.04144
N         12.94273       -3.01645       -5.38794
S         11.70244       -2.07586       -5.93328
N         11.04527       -1.57223       -4.50315
C         11.76770       -2.12230       -3.50883
S          8.88590       -1.18210       -2.22663
S          6.08501        1.14076        0.11723
H          2.21419       -0.22466        1.51298
H          3.29524        0.90392        2.07996
H          3.74202       -0.13559        0.87202
H          1.63851        1.92846        0.64216
H          2.13329        0.79500       -0.64554
H          3.92720        2.93672        0.67519
H          3.19069        3.09051       -0.91092
H          4.24879        1.59293       -2.95518
H          6.53461        0.37428       -3.37095
H          9.01536        0.89927        0.69138
H         11.40172        0.59171        1.29832
H         12.51233        0.09734        0.01322
H         11.83184       -1.10368        1.14753
H         12.38421       -2.62692       -0.20945
H         14.31928       -3.72416       -1.03899
H         14.06935       -5.89188       -1.38774
H         15.76163       -6.18954       -0.95945
H         14.86410       -7.34085       -1.97010
H         17.18586       -6.97937       -3.45228
H         17.73754       -5.49342       -5.54082
