36
 xtb: 6.5.1 (fef0646)
N           -6.21070944843848        1.23112630521001       -0.68299591300478
C           -4.71978319682115        1.20492189473525       -0.68022067882503
C           -4.15199694592732        0.44400959629360        0.51282520193063
C           -2.65160567886123        0.41607525406038        0.51831448335647
C           -1.96092523167304       -0.52679719183865       -0.22921320346056
C           -0.58355635846131       -0.53260131523951       -0.26273647439674
C            0.15433734565252        0.41453128033951        0.44843584191217
C            1.61086656403932        0.44805819677725        0.43600998490084
C            2.39897792053885       -0.30135023710106       -0.34917965148125
C            3.85508573406484       -0.25569967481263       -0.35878720723779
C            4.58614098596184        0.37269528780144        0.64877749040097
C            5.96688810119825        0.41045168448037        0.61876564901754
F            6.65859071762622        1.02989520114992        1.61538263697571
C            6.63791856277515       -0.18959290809433       -0.43278344328473
C            5.93573644740269       -0.82547032385309       -1.43558656128936
C            4.55892237415194       -0.86181151752355       -1.40021863014549
C           -0.54811763118746        1.36047424836497        1.19594763311281
C           -1.92535604146090        1.36237103652878        1.22605975671763
Cl          -7.15462630620017       -2.24910332540230       -0.63406841990951
H           -6.60354781526025        1.69632794137888       -1.49063898798813
H           -6.59059135101887        1.65489032354358        0.17366507072401
H           -6.57371945889521        0.23536892828355       -0.68822182499449
H           -4.35598525311255        2.23740499675621       -0.64668976618412
H           -4.35364294504636        0.77998971977643       -1.60472172643672
H           -4.53058314073037       -0.59945928776926        0.49629931422467
H           -4.51618006459066        0.85480834510552        1.45161251595631
H           -2.50972427188174       -1.28659664924151       -0.76637150970223
H           -0.06537394238816       -1.30488413468731       -0.80897773109614
H            2.07086603987468        1.12869209017459        1.13801277886174
H            1.93780424474274       -0.92546236490940       -1.08581057438811
H            4.08855141866623        0.85971068871700        1.46476940203965
H            7.71340788583107       -0.18250373432493       -0.43541328439208
H            6.46316095151152       -1.32145906558002       -2.23455041967722
H            4.00894567451595       -1.35602345183759       -2.18393775642598
H           -0.00654698837533        2.11793685579130        1.73127272974820
H           -2.46061822222224        2.11730130070840        1.77205528438640
