 xtb: 6.5.1 (fef0646)
          01232320353D

 41 40  0     0  0            999 V2000
    0.8034    0.0124    0.0888 N   0  0  0  0  0  0  0  0  0  0  0  0
    2.3029    0.0006    0.0840 C   0  0  0  0  0  0  0  0  0  0  0  0
    2.8241   -1.0864   -0.8430 C   0  0  0  0  0  0  0  0  0  0  0  0
    4.3555   -1.1052   -0.8560 C   0  0  0  0  0  0  0  0  0  0  0  0
    4.8941   -2.1931   -1.7836 C   0  0  0  0  0  0  0  0  0  0  0  0
    6.4209   -2.2154   -1.8024 C   0  0  0  0  0  0  0  0  0  0  0  0
    6.9605   -3.3019   -2.7296 C   0  0  0  0  0  0  0  0  0  0  0  0
    8.4868   -3.3269   -2.7518 C   0  0  0  0  0  0  0  0  0  0  0  0
    9.0266   -4.4135   -3.6783 C   0  0  0  0  0  0  0  0  0  0  0  0
   10.5529   -4.4407   -3.7018 C   0  0  0  0  0  0  0  0  0  0  0  0
   11.0915   -5.5274   -4.6288 C   0  0  0  0  0  0  0  0  0  0  0  0
   12.6177   -5.5580   -4.6551 C   0  0  0  0  0  0  0  0  0  0  0  0
   13.1458   -6.6448   -5.5831 C   0  0  0  0  0  0  0  0  0  0  0  0
    0.4326    0.7417    0.7106 H   0  0  0  0  0  0  0  0  0  0  0  0
    0.4517   -0.9025    0.4011 H   0  0  0  0  0  0  0  0  0  0  0  0
    0.4562    0.1794   -0.8651 H   0  0  0  0  0  0  0  0  0  0  0  0
    2.6492   -0.1710    1.1040 H   0  0  0  0  0  0  0  0  0  0  0  0
    2.6539    0.9801   -0.2432 H   0  0  0  0  0  0  0  0  0  0  0  0
    2.4667   -0.9140   -1.8602 H   0  0  0  0  0  0  0  0  0  0  0  0
    2.4639   -2.0633   -0.5142 H   0  0  0  0  0  0  0  0  0  0  0  0
    4.7262   -1.2792    0.1552 H   0  0  0  0  0  0  0  0  0  0  0  0
    4.7287   -0.1345   -1.1860 H   0  0  0  0  0  0  0  0  0  0  0  0
    4.5256   -2.0225   -2.7972 H   0  0  0  0  0  0  0  0  0  0  0  0
    4.5253   -3.1669   -1.4552 H   0  0  0  0  0  0  0  0  0  0  0  0
    6.7935   -2.3875   -0.7905 H   0  0  0  0  0  0  0  0  0  0  0  0
    6.7937   -1.2432   -2.1315 H   0  0  0  0  0  0  0  0  0  0  0  0
    6.5885   -3.1311   -3.7423 H   0  0  0  0  0  0  0  0  0  0  0  0
    6.5892   -4.2753   -2.4011 H   0  0  0  0  0  0  0  0  0  0  0  0
    8.8604   -3.4979   -1.7396 H   0  0  0  0  0  0  0  0  0  0  0  0
    8.8596   -2.3544   -3.0810 H   0  0  0  0  0  0  0  0  0  0  0  0
    8.6536   -4.2429   -4.6909 H   0  0  0  0  0  0  0  0  0  0  0  0
    8.6540   -5.3865   -3.3496 H   0  0  0  0  0  0  0  0  0  0  0  0
   10.9268   -4.6118   -2.6895 H   0  0  0  0  0  0  0  0  0  0  0  0
   10.9265   -3.4680   -4.0306 H   0  0  0  0  0  0  0  0  0  0  0  0
   10.7179   -5.3561   -5.6412 H   0  0  0  0  0  0  0  0  0  0  0  0
   10.7180   -6.5001   -4.2999 H   0  0  0  0  0  0  0  0  0  0  0  0
   12.9923   -5.7307   -3.6435 H   0  0  0  0  0  0  0  0  0  0  0  0
   12.9922   -4.5860   -4.9843 H   0  0  0  0  0  0  0  0  0  0  0  0
   12.7997   -7.6241   -5.2597 H   0  0  0  0  0  0  0  0  0  0  0  0
   14.2330   -6.6496   -5.5875 H   0  0  0  0  0  0  0  0  0  0  0  0
   12.7994   -6.4790   -6.6009 H   0  0  0  0  0  0  0  0  0  0  0  0
  1  2  1  0  0  0  0
  2  3  1  0  0  0  0
  3  4  1  0  0  0  0
  4  5  1  0  0  0  0
  5  6  1  0  0  0  0
  6  7  1  0  0  0  0
  7  8  1  0  0  0  0
  8  9  1  0  0  0  0
  9 10  1  0  0  0  0
 10 11  1  0  0  0  0
 11 12  1  0  0  0  0
 12 13  1  0  0  0  0
  1 14  1  0  0  0  0
  1 15  1  0  0  0  0
  1 16  1  0  0  0  0
  2 17  1  0  0  0  0
  2 18  1  0  0  0  0
  3 19  1  0  0  0  0
  3 20  1  0  0  0  0
  4 21  1  0  0  0  0
  4 22  1  0  0  0  0
  5 23  1  0  0  0  0
  5 24  1  0  0  0  0
  6 25  1  0  0  0  0
  6 26  1  0  0  0  0
  7 27  1  0  0  0  0
  7 28  1  0  0  0  0
  8 29  1  0  0  0  0
  8 30  1  0  0  0  0
  9 31  1  0  0  0  0
  9 32  1  0  0  0  0
 10 33  1  0  0  0  0
 10 34  1  0  0  0  0
 11 35  1  0  0  0  0
 11 36  1  0  0  0  0
 12 37  1  0  0  0  0
 12 38  1  0  0  0  0
 13 39  1  0  0  0  0
 13 40  1  0  0  0  0
 13 41  1  0  0  0  0
M  CHG  1   1   1
M  END
