45

N          3.14050       -0.72570        0.80216
C          2.65264        0.48498        0.08510
C          3.75881        1.53105       -0.05011
C          4.92172        1.01848       -0.84983
C          5.11178        1.07123       -2.21315
C          6.34968        0.48131       -2.60395
C          7.09368        0.01906       -1.53127
C          8.40934       -0.56748       -1.55061
C          9.34406       -0.57311       -0.53042
C         10.59239       -1.18301       -0.89620
C         11.76065       -1.22339        0.03785
C         10.55528       -1.66853       -2.19531
C         11.58404       -2.35652       -2.94844
C         11.81555       -2.27975       -4.30960
C         12.85632       -3.15119       -4.73743
C         13.47495       -3.80828       -3.68985
C         14.61655       -4.69667       -3.77514
C         15.69155       -4.62510       -4.65724
C         15.95552       -3.56821       -5.68412
C         16.58146       -5.74070       -4.48435
C         16.19293       -6.58687       -3.47474
S         14.76149       -6.05778       -2.72548
S         12.68851       -3.44155       -2.21657
S          9.03016       -1.35969       -2.92833
S          6.23713        0.26231       -0.06250
H          2.40175       -1.43259        0.90449
H          3.49624       -0.50083        1.74021
H          3.91795       -1.16656        0.28699
H          1.81467        0.87723        0.66860
H          2.28876        0.14421       -0.88937
H          4.09183        1.85736        0.94327
H          3.35094        2.41973       -0.54578
H          4.41631        1.52617       -2.91145
H          6.69590        0.43939       -3.63257
H          9.17156       -0.12439        0.43664
H         11.53961       -0.69546        0.97057
H         12.63073       -0.74137       -0.41977
H         12.01198       -2.25371        0.30525
H         11.25430       -1.64627       -4.98571
H         13.14850       -3.26427       -5.77165
H         15.26818       -2.72423       -5.62770
H         15.88514       -3.99949       -6.68782
H         16.96061       -3.15477       -5.55075
H         17.47214       -5.90660       -5.08039
H         16.68541       -7.49054       -3.14214
