 xtb: 6.5.1 (fef0646)
          01232319293D

 45 48  0     0  0            999 V2000
    3.4174   -0.9866    0.5738 N   0  0  0  0  0  0  0  0  0  0  0  0
    2.6773    0.2616    0.2382 C   0  0  0  0  0  0  0  0  0  0  0  0
    3.5970    1.4639    0.4779 C   0  0  0  0  0  0  0  0  0  0  0  0
    4.7967    1.4010   -0.4074 C   0  0  0  0  0  0  0  0  0  0  0  0
    5.0383    2.0519   -1.5760 C   0  0  0  0  0  0  0  0  0  0  0  0
    6.2455    1.6805   -2.1949 C   0  0  0  0  0  0  0  0  0  0  0  0
    6.9520    0.7201   -1.5171 C   0  0  0  0  0  0  0  0  0  0  0  0
    8.1855    0.1089   -1.8443 C   0  0  0  0  0  0  0  0  0  0  0  0
    8.8855   -0.8519   -1.1474 C   0  0  0  0  0  0  0  0  0  0  0  0
   10.0828   -1.2460   -1.7520 C   0  0  0  0  0  0  0  0  0  0  0  0
   10.9941   -2.2687   -1.1658 C   0  0  0  0  0  0  0  0  0  0  0  0
   10.3151   -0.5754   -2.9465 C   0  0  0  0  0  0  0  0  0  0  0  0
   11.3937   -0.6836   -3.8607 C   0  0  0  0  0  0  0  0  0  0  0  0
   11.5634    0.0450   -5.0219 C   0  0  0  0  0  0  0  0  0  0  0  0
   12.7131   -0.2869   -5.7340 C   0  0  0  0  0  0  0  0  0  0  0  0
   13.4595   -1.2842   -5.1388 C   0  0  0  0  0  0  0  0  0  0  0  0
   14.6710   -1.9026   -5.5690 C   0  0  0  0  0  0  0  0  0  0  0  0
   15.5754   -1.5125   -6.5385 C   0  0  0  0  0  0  0  0  0  0  0  0
   15.4922   -0.2743   -7.3659 C   0  0  0  0  0  0  0  0  0  0  0  0
   16.6456   -2.4269   -6.6560 C   0  0  0  0  0  0  0  0  0  0  0  0
   16.5634   -3.4793   -5.8006 C   0  0  0  0  0  0  0  0  0  0  0  0
   15.1705   -3.3960   -4.8097 S   0  0  0  0  0  0  0  0  0  0  0  0
   12.7111   -1.8074   -3.6603 S   0  0  0  0  0  0  0  0  0  0  0  0
    9.0315    0.5482   -3.3034 S   0  0  0  0  0  0  0  0  0  0  0  0
    6.1170    0.2890   -0.0387 S   0  0  0  0  0  0  0  0  0  0  0  0
    2.9537   -1.8256    0.2136 H   0  0  0  0  0  0  0  0  0  0  0  0
    3.5325   -1.0737    1.5894 H   0  0  0  0  0  0  0  0  0  0  0  0
    4.3886   -0.8887    0.1603 H   0  0  0  0  0  0  0  0  0  0  0  0
    1.7765    0.3291    0.8483 H   0  0  0  0  0  0  0  0  0  0  0  0
    2.3942    0.2210   -0.8143 H   0  0  0  0  0  0  0  0  0  0  0  0
    3.8945    1.4966    1.5280 H   0  0  0  0  0  0  0  0  0  0  0  0
    3.0409    2.3751    0.2584 H   0  0  0  0  0  0  0  0  0  0  0  0
    4.3707    2.7879   -1.9868 H   0  0  0  0  0  0  0  0  0  0  0  0
    6.6023    2.1012   -3.1167 H   0  0  0  0  0  0  0  0  0  0  0  0
    8.5368   -1.2573   -0.2117 H   0  0  0  0  0  0  0  0  0  0  0  0
   10.6051   -2.6133   -0.2112 H   0  0  0  0  0  0  0  0  0  0  0  0
   11.9893   -1.8540   -1.0099 H   0  0  0  0  0  0  0  0  0  0  0  0
   11.0952   -3.1237   -1.8336 H   0  0  0  0  0  0  0  0  0  0  0  0
   10.8613    0.7961   -5.3404 H   0  0  0  0  0  0  0  0  0  0  0  0
   12.9712    0.1725   -6.6678 H   0  0  0  0  0  0  0  0  0  0  0  0
   15.2526    0.5901   -6.7489 H   0  0  0  0  0  0  0  0  0  0  0  0
   14.7254   -0.3750   -8.1340 H   0  0  0  0  0  0  0  0  0  0  0  0
   16.4438   -0.0981   -7.8602 H   0  0  0  0  0  0  0  0  0  0  0  0
   17.4511   -2.2975   -7.3565 H   0  0  0  0  0  0  0  0  0  0  0  0
   17.2402   -4.3035   -5.6913 H   0  0  0  0  0  0  0  0  0  0  0  0
  1  2  1  0  0  0  0
  2  3  1  0  0  0  0
  3  4  1  0  0  0  0
  4  5  2  0  0  0  0
  5  6  4  0  0  0  0
  6  7  2  0  0  0  0
  7  8  1  0  0  0  0
  8  9  4  0  0  0  0
  9 10  4  0  0  0  0
 10 11  1  0  0  0  0
 10 12  4  0  0  0  0
 12 13  4  0  0  0  0
 13 14  4  0  0  0  0
 14 15  4  0  0  0  0
 15 16  4  0  0  0  0
 16 17  1  0  0  0  0
 17 18  4  0  0  0  0
 18 19  1  0  0  0  0
 18 20  4  0  0  0  0
 20 21  2  0  0  0  0
 17 22  1  0  0  0  0
 21 22  1  0  0  0  0
 13 23  1  0  0  0  0
 16 23  1  0  0  0  0
  8 24  1  0  0  0  0
 12 24  1  0  0  0  0
  4 25  1  0  0  0  0
  7 25  1  0  0  0  0
  1 26  1  0  0  0  0
  1 27  1  0  0  0  0
  1 28  1  0  0  0  0
  2 29  1  0  0  0  0
  2 30  1  0  0  0  0
  3 31  1  0  0  0  0
  3 32  1  0  0  0  0
  5 33  1  0  0  0  0
  6 34  1  0  0  0  0
  9 35  1  0  0  0  0
 11 36  1  0  0  0  0
 11 37  1  0  0  0  0
 11 38  1  0  0  0  0
 14 39  1  0  0  0  0
 15 40  1  0  0  0  0
 19 41  1  0  0  0  0
 19 42  1  0  0  0  0
 19 43  1  0  0  0  0
 20 44  1  0  0  0  0
 21 45  1  0  0  0  0
M  CHG  1   1   1
M  END
