14
0.0
N           -1.52032  -0.50755  -0.12206
C           -0.63996   0.61513   0.32373
C            0.74776   0.60019  -0.31894
C            1.61928  -0.56543   0.13206
H           -1.63708  -0.49441  -1.13937
H           -2.44890  -0.43883   0.30489
H           -1.12501  -1.41488   0.14129
H           -0.54200   0.58326   1.41520
H           -1.14668   1.56221   0.09786
H            1.26379   1.54408  -0.09816
H            0.63770   0.58119  -1.40964
H            1.18264  -1.52425  -0.14744
H            1.74713  -0.56699   1.21558
H            2.61481  -0.52268  -0.31477
