 xtb: 6.5.1 (fef0646)
          01232314103D

 28 27  0     0  0            999 V2000
    1.0647   -0.1462    0.1492 N   0  0  0  0  0  0  0  0  0  0  0  0
    2.5282   -0.1715    0.1655 C   0  0  0  0  0  0  0  0  0  0  0  0
    3.0533   -0.3014   -1.2615 C   0  0  0  0  0  0  0  0  0  0  0  0
    4.5734   -0.1468   -1.3739 C   0  0  0  0  0  0  0  0  0  0  0  0
    4.9747   -0.0180   -2.8456 C   0  0  0  0  0  0  0  0  0  0  0  0
    6.4832    0.1528   -2.9945 C   0  0  0  0  0  0  0  0  0  0  0  0
    7.2178   -1.0252   -2.3636 C   0  0  0  0  0  0  0  0  0  0  0  0
    6.8329   -1.1548   -0.8941 C   0  0  0  0  0  0  0  0  0  0  0  0
    5.3230   -1.3236   -0.7453 C   0  0  0  0  0  0  0  0  0  0  0  0
    0.0665    2.0931   -1.4533 Cl  0  0  0  0  0  0  0  0  0  0  0  0
    0.6864   -0.0561    1.0853 H   0  0  0  0  0  0  0  0  0  0  0  0
    0.6980   -0.9934   -0.2716 H   0  0  0  0  0  0  0  0  0  0  0  0
    0.5525    1.0483   -0.6983 H   0  0  0  0  0  0  0  0  0  0  0  0
    2.9099   -0.9904    0.7894 H   0  0  0  0  0  0  0  0  0  0  0  0
    2.8665    0.7736    0.5964 H   0  0  0  0  0  0  0  0  0  0  0  0
    2.5733    0.4725   -1.8622 H   0  0  0  0  0  0  0  0  0  0  0  0
    2.7583   -1.2715   -1.6691 H   0  0  0  0  0  0  0  0  0  0  0  0
    4.8675    0.7718   -0.8541 H   0  0  0  0  0  0  0  0  0  0  0  0
    4.4611    0.8362   -3.2909 H   0  0  0  0  0  0  0  0  0  0  0  0
    4.6576   -0.9150   -3.3829 H   0  0  0  0  0  0  0  0  0  0  0  0
    6.7934    1.0777   -2.5028 H   0  0  0  0  0  0  0  0  0  0  0  0
    6.7434    0.2329   -4.0520 H   0  0  0  0  0  0  0  0  0  0  0  0
    8.2970   -0.8874   -2.4564 H   0  0  0  0  0  0  0  0  0  0  0  0
    6.9506   -1.9438   -2.8912 H   0  0  0  0  0  0  0  0  0  0  0  0
    7.1500   -0.2577   -0.3573 H   0  0  0  0  0  0  0  0  0  0  0  0
    7.3451   -2.0099   -0.4475 H   0  0  0  0  0  0  0  0  0  0  0  0
    5.0751   -1.4060    0.3145 H   0  0  0  0  0  0  0  0  0  0  0  0
    5.0137   -2.2493   -1.2369 H   0  0  0  0  0  0  0  0  0  0  0  0
  1  2  1  0  0  0  0
  2  3  1  0  0  0  0
  3  4  1  0  0  0  0
  4  5  1  0  0  0  0
  5  6  1  0  0  0  0
  6  7  1  0  0  0  0
  7  8  1  0  0  0  0
  4  9  1  0  0  0  0
  8  9  1  0  0  0  0
  1 11  1  0  0  0  0
  1 12  1  0  0  0  0
 10 13  1  0  0  0  0
  2 14  1  0  0  0  0
  2 15  1  0  0  0  0
  3 16  1  0  0  0  0
  3 17  1  0  0  0  0
  4 18  1  0  0  0  0
  5 19  1  0  0  0  0
  5 20  1  0  0  0  0
  6 21  1  0  0  0  0
  6 22  1  0  0  0  0
  7 23  1  0  0  0  0
  7 24  1  0  0  0  0
  8 25  1  0  0  0  0
  8 26  1  0  0  0  0
  9 27  1  0  0  0  0
  9 28  1  0  0  0  0
M  END
