16
1.269
N            0.15079  -0.87958  -0.89145
C            1.16527  -0.32458   0.05375
C            1.12162   1.21400   0.21005
C            2.65621   1.24522   0.02000
C            2.59236  -0.19877  -0.53051
Cl          -3.02027  -0.35281   0.52704
H            0.31288  -1.87997  -1.06568
H            0.19088  -0.38860  -1.79368
H           -0.80363  -0.76332  -0.51022
H            1.15514  -0.84340   1.02662
H            0.76973   1.56350   1.18981
H            0.56311   1.70251  -0.59696
H            3.21182   1.32934   0.96320
H            3.01212   1.99377  -0.70121
H            3.32602  -0.89139  -0.09695
H            2.60554  -0.25814  -1.62508
