 xtb: 6.5.1 (fef0646)
          01242316573D

 16 15  0     0  0            999 V2000
    0.1508   -0.8796   -0.8914 N   0  0  0  0  0  0  0  0  0  0  0  0
    1.1653   -0.3246    0.0537 C   0  0  0  0  0  0  0  0  0  0  0  0
    1.1216    1.2140    0.2100 C   0  0  0  0  0  0  0  0  0  0  0  0
    2.6562    1.2452    0.0200 C   0  0  0  0  0  0  0  0  0  0  0  0
    2.5924   -0.1988   -0.5305 C   0  0  0  0  0  0  0  0  0  0  0  0
   -3.0203   -0.3528    0.5271 Cl  0  0  0  0  0  0  0  0  0  0  0  0
    0.3129   -1.8800   -1.0657 H   0  0  0  0  0  0  0  0  0  0  0  0
    0.1909   -0.3886   -1.7937 H   0  0  0  0  0  0  0  0  0  0  0  0
   -0.8036   -0.7633   -0.5102 H   0  0  0  0  0  0  0  0  0  0  0  0
    1.1551   -0.8434    1.0266 H   0  0  0  0  0  0  0  0  0  0  0  0
    0.7697    1.5635    1.1898 H   0  0  0  0  0  0  0  0  0  0  0  0
    0.5631    1.7025   -0.5970 H   0  0  0  0  0  0  0  0  0  0  0  0
    3.2118    1.3293    0.9632 H   0  0  0  0  0  0  0  0  0  0  0  0
    3.0121    1.9938   -0.7012 H   0  0  0  0  0  0  0  0  0  0  0  0
    3.3260   -0.8914   -0.0970 H   0  0  0  0  0  0  0  0  0  0  0  0
    2.6055   -0.2582   -1.6251 H   0  0  0  0  0  0  0  0  0  0  0  0
  1  2  1  0  0  0  0
  2  3  1  0  0  0  0
  3  4  1  0  0  0  0
  2  5  1  0  0  0  0
  4  5  1  0  0  0  0
  1  7  1  0  0  0  0
  1  8  1  0  0  0  0
  1  9  1  0  0  0  0
  2 10  1  0  0  0  0
  3 11  1  0  0  0  0
  3 12  1  0  0  0  0
  4 13  1  0  0  0  0
  4 14  1  0  0  0  0
  5 15  1  0  0  0  0
  5 16  1  0  0  0  0
M  END
