27
0.0
N           -3.52528   0.11231   1.20599
C           -2.80478   0.57105  -0.02772
C           -3.53999   0.14668  -1.29373
C           -1.36943   0.10092  -0.02414
C           -1.06735  -1.25975  -0.02461
C            0.23873  -1.70400  -0.01594
C           -0.33070   1.02024  -0.01501
C            1.01353   0.60712  -0.00625
C            1.30681  -0.79083  -0.00632
C            2.65122  -1.20441   0.00419
C            3.67111  -0.27584   0.01432
C            3.38688   1.08232   0.01411
C            2.08014   1.52427   0.00393
H           -3.60227  -0.91021   1.21820
H           -4.47417   0.50046   1.24806
H           -3.01906   0.40030   2.05042
H           -2.78743   1.67296   0.00321
H           -4.55559   0.54067  -1.31544
H           -3.60853  -0.93809  -1.35544
H           -3.02259   0.49529  -2.18764
H           -1.87037  -1.97557  -0.03316
H            0.45069  -2.75912  -0.01597
H           -0.55193   2.07224  -0.01339
H            2.87718  -2.25674   0.00458
H            4.69664  -0.60729   0.02267
H            4.19351   1.79701   0.02207
H            1.86570   2.57896   0.00374
