 xtb: 6.5.1 (fef0646)
          02032321573D

 27 28  0     0  0            999 V2000
   -3.5253    0.1123    1.2060 N   0  0  0  0  0  0  0  0  0  0  0  0
   -2.8048    0.5711   -0.0277 C   0  0  0  0  0  0  0  0  0  0  0  0
   -3.5400    0.1467   -1.2937 C   0  0  0  0  0  0  0  0  0  0  0  0
   -1.3694    0.1009   -0.0241 C   0  0  0  0  0  0  0  0  0  0  0  0
   -1.0674   -1.2597   -0.0246 C   0  0  0  0  0  0  0  0  0  0  0  0
    0.2387   -1.7040   -0.0159 C   0  0  0  0  0  0  0  0  0  0  0  0
   -0.3307    1.0202   -0.0150 C   0  0  0  0  0  0  0  0  0  0  0  0
    1.0135    0.6071   -0.0063 C   0  0  0  0  0  0  0  0  0  0  0  0
    1.3068   -0.7908   -0.0063 C   0  0  0  0  0  0  0  0  0  0  0  0
    2.6512   -1.2044    0.0042 C   0  0  0  0  0  0  0  0  0  0  0  0
    3.6711   -0.2759    0.0143 C   0  0  0  0  0  0  0  0  0  0  0  0
    3.3869    1.0823    0.0141 C   0  0  0  0  0  0  0  0  0  0  0  0
    2.0801    1.5243    0.0039 C   0  0  0  0  0  0  0  0  0  0  0  0
   -3.6023   -0.9102    1.2182 H   0  0  0  0  0  0  0  0  0  0  0  0
   -4.4742    0.5005    1.2481 H   0  0  0  0  0  0  0  0  0  0  0  0
   -3.0191    0.4003    2.0504 H   0  0  0  0  0  0  0  0  0  0  0  0
   -2.7874    1.6730    0.0032 H   0  0  0  0  0  0  0  0  0  0  0  0
   -4.5556    0.5407   -1.3154 H   0  0  0  0  0  0  0  0  0  0  0  0
   -3.6085   -0.9381   -1.3554 H   0  0  0  0  0  0  0  0  0  0  0  0
   -3.0226    0.4953   -2.1876 H   0  0  0  0  0  0  0  0  0  0  0  0
   -1.8704   -1.9756   -0.0332 H   0  0  0  0  0  0  0  0  0  0  0  0
    0.4507   -2.7591   -0.0160 H   0  0  0  0  0  0  0  0  0  0  0  0
   -0.5519    2.0722   -0.0134 H   0  0  0  0  0  0  0  0  0  0  0  0
    2.8772   -2.2568    0.0046 H   0  0  0  0  0  0  0  0  0  0  0  0
    4.6966   -0.6073    0.0227 H   0  0  0  0  0  0  0  0  0  0  0  0
    4.1935    1.7970    0.0221 H   0  0  0  0  0  0  0  0  0  0  0  0
    1.8657    2.5790    0.0037 H   0  0  0  0  0  0  0  0  0  0  0  0
  1  2  1  0  0  0  0
  2  3  1  0  0  0  0
  2  4  1  0  0  0  0
  4  5  4  0  0  0  0
  5  6  2  0  0  0  0
  4  7  4  0  0  0  0
  7  8  4  0  0  0  0
  6  9  4  0  0  0  0
  8  9  4  0  0  0  0
  9 10  4  0  0  0  0
 10 11  2  0  0  0  0
 11 12  4  0  0  0  0
  8 13  4  0  0  0  0
 12 13  2  0  0  0  0
  1 14  1  0  0  0  0
  1 15  1  0  0  0  0
  1 16  1  0  0  0  0
  2 17  1  0  0  0  0
  3 18  1  0  0  0  0
  3 19  1  0  0  0  0
  3 20  1  0  0  0  0
  5 21  1  0  0  0  0
  6 22  1  0  0  0  0
  7 23  1  0  0  0  0
 10 24  1  0  0  0  0
 11 25  1  0  0  0  0
 12 26  1  0  0  0  0
 13 27  1  0  0  0  0
M  CHG  1   1   1
M  END
