 xtb: 6.5.1 (fef0646)
          01242310103D

 24 22  0     0  0            999 V2000
    0.8945   -2.2470   -0.8304 N   0  0  0  0  0  0  0  0  0  0  0  0
   -0.1096   -2.3855    0.2585 C   0  0  0  0  0  0  0  0  0  0  0  0
   -0.5786   -1.0366    0.7953 C   0  0  0  0  0  0  0  0  0  0  0  0
   -1.3227   -0.1982   -0.2432 C   0  0  0  0  0  0  0  0  0  0  0  0
   -1.8229    1.1345    0.3151 C   0  0  0  0  0  0  0  0  0  0  0  0
   -2.5630    1.9783   -0.7238 C   0  0  0  0  0  0  0  0  0  0  0  0
   -3.0558    3.3029   -0.1627 C   0  0  0  0  0  0  0  0  0  0  0  0
    3.3974   -0.1209    0.3069 Cl  0  0  0  0  0  0  0  0  0  0  0  0
    0.4867   -1.7993   -1.6660 H   0  0  0  0  0  0  0  0  0  0  0  0
    1.2815   -3.1619   -1.1269 H   0  0  0  0  0  0  0  0  0  0  0  0
    1.6855   -1.6551   -0.5226 H   0  0  0  0  0  0  0  0  0  0  0  0
    0.3210   -2.9847    1.0714 H   0  0  0  0  0  0  0  0  0  0  0  0
   -0.9694   -2.9604   -0.1060 H   0  0  0  0  0  0  0  0  0  0  0  0
    0.2853   -0.4714    1.1666 H   0  0  0  0  0  0  0  0  0  0  0  0
   -1.2244   -1.1823    1.6712 H   0  0  0  0  0  0  0  0  0  0  0  0
   -2.1684   -0.7718   -0.6430 H   0  0  0  0  0  0  0  0  0  0  0  0
   -0.6727   -0.0092   -1.1059 H   0  0  0  0  0  0  0  0  0  0  0  0
   -0.9772    1.7053    0.7187 H   0  0  0  0  0  0  0  0  0  0  0  0
   -2.4782    0.9514    1.1757 H   0  0  0  0  0  0  0  0  0  0  0  0
   -3.4060    1.4006   -1.1263 H   0  0  0  0  0  0  0  0  0  0  0  0
   -1.9038    2.1538   -1.5846 H   0  0  0  0  0  0  0  0  0  0  0  0
   -3.7412    3.1475    0.6735 H   0  0  0  0  0  0  0  0  0  0  0  0
   -3.5831    3.8971   -0.9134 H   0  0  0  0  0  0  0  0  0  0  0  0
   -2.2259    3.9073    0.2105 H   0  0  0  0  0  0  0  0  0  0  0  0
  1  2  1  0  0  0  0
  2  3  1  0  0  0  0
  3  4  1  0  0  0  0
  4  5  1  0  0  0  0
  5  6  1  0  0  0  0
  6  7  1  0  0  0  0
  1  9  1  0  0  0  0
  1 10  1  0  0  0  0
  1 11  1  0  0  0  0
  2 12  1  0  0  0  0
  2 13  1  0  0  0  0
  3 14  1  0  0  0  0
  3 15  1  0  0  0  0
  4 16  1  0  0  0  0
  4 17  1  0  0  0  0
  5 18  1  0  0  0  0
  5 19  1  0  0  0  0
  6 20  1  0  0  0  0
  6 21  1  0  0  0  0
  7 22  1  0  0  0  0
  7 23  1  0  0  0  0
  7 24  1  0  0  0  0
M  END
