 xtb: 6.5.1 (fef0646)
          01242310113D

 41 40  0     0  0            999 V2000
   -6.4501   -1.1464    0.2428 N   0  0  0  0  0  0  0  0  0  0  0  0
   -5.6069   -0.5069   -0.8074 C   0  0  0  0  0  0  0  0  0  0  0  0
   -4.1123   -0.6079   -0.5169 C   0  0  0  0  0  0  0  0  0  0  0  0
   -3.6756    0.1949    0.7083 C   0  0  0  0  0  0  0  0  0  0  0  0
   -2.1763    0.0983    1.0106 C   0  0  0  0  0  0  0  0  0  0  0  0
   -1.2868    0.7564   -0.0457 C   0  0  0  0  0  0  0  0  0  0  0  0
    0.1996    0.7269    0.3163 C   0  0  0  0  0  0  0  0  0  0  0  0
    1.0848    1.3980   -0.7352 C   0  0  0  0  0  0  0  0  0  0  0  0
    2.5680    1.4529   -0.3563 C   0  0  0  0  0  0  0  0  0  0  0  0
    3.2467    0.0833   -0.3028 C   0  0  0  0  0  0  0  0  0  0  0  0
    4.7423    0.1690    0.0080 C   0  0  0  0  0  0  0  0  0  0  0  0
    5.4309   -1.1964    0.0500 C   0  0  0  0  0  0  0  0  0  0  0  0
    6.9181   -1.1023    0.3538 C   0  0  0  0  0  0  0  0  0  0  0  0
   -6.1942   -2.1370    0.3706 H   0  0  0  0  0  0  0  0  0  0  0  0
   -7.4523   -1.1151   -0.0005 H   0  0  0  0  0  0  0  0  0  0  0  0
   -6.3431   -0.6783    1.1548 H   0  0  0  0  0  0  0  0  0  0  0  0
   -5.8942    0.5459   -0.9135 H   0  0  0  0  0  0  0  0  0  0  0  0
   -5.8347   -0.9732   -1.7746 H   0  0  0  0  0  0  0  0  0  0  0  0
   -3.5426   -0.2757   -1.3926 H   0  0  0  0  0  0  0  0  0  0  0  0
   -3.8407   -1.6605   -0.3776 H   0  0  0  0  0  0  0  0  0  0  0  0
   -4.2485   -0.1415    1.5805 H   0  0  0  0  0  0  0  0  0  0  0  0
   -3.9531    1.2465    0.5721 H   0  0  0  0  0  0  0  0  0  0  0  0
   -1.8924   -0.9544    1.1228 H   0  0  0  0  0  0  0  0  0  0  0  0
   -1.9647    0.5567    1.9847 H   0  0  0  0  0  0  0  0  0  0  0  0
   -1.6056    1.7944   -0.1958 H   0  0  0  0  0  0  0  0  0  0  0  0
   -1.4332    0.2692   -1.0159 H   0  0  0  0  0  0  0  0  0  0  0  0
    0.5169   -0.3110    0.4663 H   0  0  0  0  0  0  0  0  0  0  0  0
    0.3497    1.2154    1.2860 H   0  0  0  0  0  0  0  0  0  0  0  0
    0.7108    2.4137   -0.9149 H   0  0  0  0  0  0  0  0  0  0  0  0
    0.9709    0.8785   -1.6936 H   0  0  0  0  0  0  0  0  0  0  0  0
    2.6796    1.9532    0.6126 H   0  0  0  0  0  0  0  0  0  0  0  0
    3.1094    2.0874   -1.0690 H   0  0  0  0  0  0  0  0  0  0  0  0
    3.1006   -0.4352   -1.2575 H   0  0  0  0  0  0  0  0  0  0  0  0
    2.7556   -0.5491    0.4449 H   0  0  0  0  0  0  0  0  0  0  0  0
    4.8898    0.6841    0.9643 H   0  0  0  0  0  0  0  0  0  0  0  0
    5.2359    0.8044   -0.7366 H   0  0  0  0  0  0  0  0  0  0  0  0
    5.2753   -1.7097   -0.9073 H   0  0  0  0  0  0  0  0  0  0  0  0
    4.9343   -1.8297    0.7959 H   0  0  0  0  0  0  0  0  0  0  0  0
    7.4384   -0.5064   -0.3980 H   0  0  0  0  0  0  0  0  0  0  0  0
    7.3940   -2.0848    0.3795 H   0  0  0  0  0  0  0  0  0  0  0  0
    7.0951   -0.6276    1.3205 H   0  0  0  0  0  0  0  0  0  0  0  0
  1  2  1  0  0  0  0
  2  3  1  0  0  0  0
  3  4  1  0  0  0  0
  4  5  1  0  0  0  0
  5  6  1  0  0  0  0
  6  7  1  0  0  0  0
  7  8  1  0  0  0  0
  8  9  1  0  0  0  0
  9 10  1  0  0  0  0
 10 11  1  0  0  0  0
 11 12  1  0  0  0  0
 12 13  1  0  0  0  0
  1 14  1  0  0  0  0
  1 15  1  0  0  0  0
  1 16  1  0  0  0  0
  2 17  1  0  0  0  0
  2 18  1  0  0  0  0
  3 19  1  0  0  0  0
  3 20  1  0  0  0  0
  4 21  1  0  0  0  0
  4 22  1  0  0  0  0
  5 23  1  0  0  0  0
  5 24  1  0  0  0  0
  6 25  1  0  0  0  0
  6 26  1  0  0  0  0
  7 27  1  0  0  0  0
  7 28  1  0  0  0  0
  8 29  1  0  0  0  0
  8 30  1  0  0  0  0
  9 31  1  0  0  0  0
  9 32  1  0  0  0  0
 10 33  1  0  0  0  0
 10 34  1  0  0  0  0
 11 35  1  0  0  0  0
 11 36  1  0  0  0  0
 12 37  1  0  0  0  0
 12 38  1  0  0  0  0
 13 39  1  0  0  0  0
 13 40  1  0  0  0  0
 13 41  1  0  0  0  0
M  CHG  1   1   1
M  END
