34
0.31
N           -4.21212   0.57673  -0.96959
C           -3.90403  -0.88032  -1.02923
C           -2.79458  -1.26762  -0.05475
C           -1.54110  -0.46845  -0.25822
C           -1.32304   0.69627   0.46532
C           -0.19133   1.45451   0.25733
C           -0.60594  -0.84589  -1.21217
C            0.52664  -0.08958  -1.42383
C            0.75277   1.06705  -0.68719
N            1.91508   1.81716  -0.87786
N            3.06017   1.34479  -0.79727
C            3.33492   0.04768  -0.35662
C            2.86196  -0.39812   0.87357
C            3.10784  -1.68812   1.29287
C            3.83314  -2.54948   0.49192
C            4.31367  -2.11693  -0.72936
C            4.06817  -0.82753  -1.15162
Cl          -4.22574   1.48824   2.40063
H           -4.38369   0.87105   0.00616
H           -5.04184   0.83191  -1.53560
H           -3.41491   1.13385  -1.31243
H           -3.61081  -1.14507  -2.05145
H           -4.81314  -1.45933  -0.82060
H           -2.56149  -2.33560  -0.13799
H           -3.14294  -1.12397   0.97397
H           -2.05908   1.00965   1.18804
H           -0.01836   2.35385   0.82394
H           -0.77526  -1.73972  -1.78961
H            1.25693  -0.38598  -2.15801
H            2.29426   0.28148   1.48639
H            2.73247  -2.02500   2.24638
H            4.02506  -3.55876   0.82046
H            4.88078  -2.78892  -1.35409
H            4.43261  -0.47999  -2.10362
