25

N          2.97365        0.48166       -2.99495
C          2.46012        1.46771       -2.00621
C          3.05364        1.20389       -0.62052
C          4.55944        1.30013       -0.58527
C          5.21247        2.49906       -0.90229
C          6.60880        2.58730       -0.86010
C          7.37217        1.48107       -0.49183
O          8.73413        1.43460       -0.40868
C          9.44448        2.63953       -0.67167
C          6.72474        0.29001       -0.16216
C          5.33039        0.19550       -0.20367
H          2.59845        0.65904       -3.93461
H          2.73081       -0.48337       -2.73608
H          4.00196        0.52955       -3.05882
H          1.37103        1.36297       -1.99294
H          2.71846        2.45869       -2.39126
H          2.73284        0.21256       -0.27698
H          2.64261        1.92517        0.09640
H          4.65175        3.39542       -1.16027
H          7.07185        3.53942       -1.10388
H         10.51333        2.42894       -0.56834
H          9.18388        3.41709        0.05369
H          9.27110        2.98213       -1.69732
H          7.31650       -0.56825        0.15197
H          4.86904       -0.74406        0.09288
