  35

 N         -5.3903121220        1.0360459041        1.3097231601
 C         -5.5109519977       -0.3467579225        0.7666860445
 C         -4.8217693714       -0.5031051498       -0.5872510517
 C         -3.3426690544       -0.2626961570       -0.5226340206
 C         -2.4850133104       -1.2543052744       -0.0563022470
 C         -1.1288673251       -1.0444724885        0.0152866690
 C         -0.5649143931        0.1846504328       -0.3762678814
 C          0.8383404320        0.4426090500       -0.3375810283
 C          1.8024393051       -0.4472567693        0.0538171071
 C          3.2073267719       -0.1966918117        0.0798350195
 C          3.7720678059        1.0376045027       -0.2959841576
 C          5.1321707528        1.2310813545       -0.2599174586
 C          5.9735783657        0.2101639377        0.1482944818
 C          5.4442003582       -1.0122387729        0.5238162795
 C          4.0862120365       -1.2172106565        0.4923119451
 C         -1.4442843956        1.1853370848       -0.8304630408
 C         -2.7985685017        0.9621596031       -0.9000477567
 H         -5.8570589630        1.1325270967        2.2245984686
 H         -5.8159155599        1.7235495597        0.6702877245
 H         -4.3981695018        1.2996805186        1.4341766079
 H         -6.5724514454       -0.6115977146        0.6880353594
 H         -5.0792682609       -1.0543856081        1.4836874724
 H         -5.2681586425        0.1903193128       -1.3069325993
 H         -5.0016202001       -1.5033082773       -0.9956361879
 H         -2.8985298616       -2.2018237999        0.2448187861
 H         -0.4935136394       -1.8340949306        0.3730837103
 H          1.1491928650        1.4209235290       -0.6550377764
 H          1.4915258235       -1.4280221440        0.3642357910
 H          3.1349076634        1.8422220973       -0.6158712796
 H          5.5484606907        2.1816247057       -0.5514510194
 H          7.0397872137        0.3669802837        0.1734236747
 H          6.1010243250       -1.8058575864        0.8412741592
 H          3.6810190189       -2.1709871146        0.7844281750
 H         -1.0413643230        2.1361550285       -1.1344292324
 H         -3.4528111833        1.7384743143       -1.2596504140
          35
        -45.89039208
 N         -5.3720052797       -0.6866689573       -1.5214778346
 C         -5.5078848918        0.5474754906       -0.6961444598
 C         -4.8457044621        0.4089664460        0.6730482132
 C         -3.3651261725        0.1868563432        0.5853704548
 C         -2.5000387620        1.2563458270        0.3747273504
 C         -1.1439580987        1.0622454272        0.2661459799
 C         -0.5881082902       -0.2279609213        0.3585819303
 C          0.8122169451       -0.4804996241        0.2498031423
 C          1.7843001724        0.4677780382        0.0749763844
 C          3.1830779447        0.2125476395       -0.0482897135
 C          3.7282305723       -1.0862821377       -0.0298970256
 C          5.0821686647       -1.2846411764       -0.1567584202
 C          5.9368170698       -0.2055073357       -0.3045003458
 C          5.4271286288        1.0813261497       -0.3252039923
 C          4.0752899777        1.2919289928       -0.2003441662
 C         -1.4739771573       -1.3021104207        0.5641800422
 C         -2.8278997487       -1.0945789001        0.6733081360
 H         -5.8171077708       -0.5822222281       -2.4461931797
 H         -5.8117026635       -1.4940236833       -1.0548328844
 H         -4.3768560629       -0.9212231226       -1.6777069682
 H         -6.5715734629        0.7903960604       -0.5836793339
 H         -5.0644096298        1.3921212171       -1.2357420751
 H         -5.3028502883       -0.4229089823        1.2179814036
 H         -5.0371113704        1.2980895063        1.2834049645
 H         -2.9082077370        2.2498761608        0.2996884521
 H         -0.5028883616        1.9099558434        0.1057347963
 H          1.1140327387       -1.5095666084        0.3175314328
 H          1.4849285057        1.4989593829        0.0284573097
 H          3.0805624986       -1.9372449428        0.0808603208
 H          5.4828971800       -2.2853835622       -0.1422208837
 H          6.9980301488       -0.3672011447       -0.4036326736
 H          6.0945621635        1.9201589203       -0.4396936810
 H          3.6851872305        2.2954458086       -0.2166610183
 H         -1.0767655364       -2.2997878333        0.6401470066
 H         -3.4882533413       -1.9302069023        0.8335541603
