12

N          1.03077       -0.02098        0.01128
C          2.48833       -0.01494        0.13616
C          3.26199        0.75389       -0.89272
C          3.25481       -0.74909       -0.92263
H          0.60238        0.61256        0.70078
H          0.65398       -0.96409        0.17696
H          0.72281        0.28083       -0.92089
H          2.89136       -0.05205        1.14699
H          4.18054        1.24402       -0.58154
H          2.74947        1.27611       -1.69256
H          4.16837       -1.26028       -0.63078
H          2.73179       -1.23784       -1.73712
