18
 xtb: 6.5.1 (fef0646)
N            0.44741391362931       -1.81633282077873       -0.30181247099908
C           -0.77129087930136       -1.80367793061255        0.56397272245149
C           -1.78837007752589       -0.74960472429021        0.13353824455973
C           -1.24714383113765        0.67583602776698        0.23480185491804
C           -2.27262016243835        1.73109213159479       -0.14935576493469
Cl           2.21693740066263        0.82409228259510       -0.15928851784476
H            0.10772101711300       -2.04074739987805       -1.29477767709378
H            1.00726496925231       -2.68668267771137       -0.05047687283170
H            0.95227710864226       -1.03091177910594       -0.26556400351260
H           -0.49653618343300       -1.64439578557071        1.60547761470033
H           -1.30716696407892       -2.81300415681742        0.59162934002470
H           -2.72297044972669       -0.82428667850012        0.73259627258338
H           -2.11960987424292       -0.95007956869676       -0.89823614070499
H           -0.35013959894891        0.74497981395699       -0.39727583604163
H           -0.88098948128934        0.83348153980170        1.25981548533249
H           -2.59894333076396        1.58927632946130       -1.17790469796984
H           -1.83939872136796        2.73471958325219       -0.07471296771135
H           -3.13679941129455        1.68602158050111        0.49237524282293
