24
0.923
N           -2.74357  -0.55449  -0.45356
C           -1.59042   0.39289  -0.43674
C           -0.59961   0.13372   0.71033
C            0.42110   1.29500   0.87603
C            1.48389   1.31103  -0.23766
C            2.20962  -0.04041  -0.34401
C            1.21325  -1.19478  -0.54320
C            0.15023  -1.21941   0.56987
H           -3.25659  -0.53210   0.43969
H           -2.44207  -1.52597  -0.61470
H           -3.41605  -0.31832  -1.19861
H           -1.97751   1.41569  -0.35831
H           -1.06685   0.35016  -1.39672
H           -1.20019   0.08463   1.63479
H            0.91935   1.20943   1.84888
H           -0.11110   2.25402   0.90602
H            2.20646   2.12087  -0.06608
H            1.01042   1.54890  -1.19706
H            2.79184  -0.21453   0.56885
H            2.94617  -0.02054  -1.15903
H            1.74484  -2.15540  -0.58687
H            0.72609  -1.09399  -1.51959
H            0.63503  -1.46686   1.52191
H           -0.56611  -2.03033   0.39387
