24
0.0
N           -2.64574   0.00159  -0.74270
C           -2.04621  -0.00206   0.62267
C           -0.50733  -0.00114   0.63739
C            0.10055   1.26475  -0.01299
C            1.63591   1.27323   0.10672
C            2.25245   0.00122  -0.50364
C            1.63732  -1.27241   0.10519
C            0.10205  -1.26557  -0.01467
H           -2.36636  -0.82856  -1.28488
H           -2.36892   0.83607  -1.27951
H           -3.67609  -0.00009  -0.69944
H           -2.41648  -0.87771   1.16881
H           -2.41764   0.87002   1.17378
H           -0.18126  -0.00169   1.69079
H           -0.33568   2.16802   0.43096
H           -0.17845   1.29201  -1.07122
H            1.91933   1.34485   1.16357
H            2.05464   2.17130  -0.36732
H            3.34336   0.00175  -0.37349
H            2.09043   0.00177  -1.58811
H            1.92068  -1.34486   1.16200
H            2.05722  -2.16943  -0.36977
H           -0.33322  -2.17004   0.42810
H           -0.17687  -1.29177  -1.07298
