 xtb: 6.5.1 (fef0646)
          01232314063D

 25 26  0     0  0            999 V2000
    3.2238    1.3320    0.9337 N   0  0  0  0  0  0  0  0  0  0  0  0
    2.6688    0.1197    0.2693 C   0  0  0  0  0  0  0  0  0  0  0  0
    3.0307    0.1467   -1.2186 C   0  0  0  0  0  0  0  0  0  0  0  0
    4.5087    0.0704   -1.4186 C   0  0  0  0  0  0  0  0  0  0  0  0
    5.2656   -0.9868   -1.8125 C   0  0  0  0  0  0  0  0  0  0  0  0
    6.6498   -0.7203   -1.8198 C   0  0  0  0  0  0  0  0  0  0  0  0
    6.9760    0.5461   -1.4162 C   0  0  0  0  0  0  0  0  0  0  0  0
    8.2595    1.1531   -1.2790 C   0  0  0  0  0  0  0  0  0  0  0  0
    9.4781    0.6509   -1.6684 C   0  0  0  0  0  0  0  0  0  0  0  0
   10.5435    1.5167   -1.3692 C   0  0  0  0  0  0  0  0  0  0  0  0
   10.1410    2.6625   -0.7563 C   0  0  0  0  0  0  0  0  0  0  0  0
    8.4455    2.7182   -0.5329 S   0  0  0  0  0  0  0  0  0  0  0  0
    5.5297    1.4575   -1.0653 S   0  0  0  0  0  0  0  0  0  0  0  0
    3.1772    1.2712    1.9554 H   0  0  0  0  0  0  0  0  0  0  0  0
    2.7229    2.1723    0.6230 H   0  0  0  0  0  0  0  0  0  0  0  0
    4.2240    1.4319    0.6165 H   0  0  0  0  0  0  0  0  0  0  0  0
    1.5875    0.0937    0.4051 H   0  0  0  0  0  0  0  0  0  0  0  0
    3.1090   -0.7610    0.7387 H   0  0  0  0  0  0  0  0  0  0  0  0
    2.6269    1.0504   -1.6799 H   0  0  0  0  0  0  0  0  0  0  0  0
    2.5653   -0.7116   -1.7024 H   0  0  0  0  0  0  0  0  0  0  0  0
    4.8512   -1.9378   -2.0944 H   0  0  0  0  0  0  0  0  0  0  0  0
    7.3879   -1.4453   -2.1061 H   0  0  0  0  0  0  0  0  0  0  0  0
    9.5992   -0.2965   -2.1595 H   0  0  0  0  0  0  0  0  0  0  0  0
   11.5700    1.2997   -1.6006 H   0  0  0  0  0  0  0  0  0  0  0  0
   10.7392    3.4862   -0.4210 H   0  0  0  0  0  0  0  0  0  0  0  0
  1  2  1  0  0  0  0
  2  3  1  0  0  0  0
  3  4  1  0  0  0  0
  4  5  2  0  0  0  0
  5  6  4  0  0  0  0
  6  7  2  0  0  0  0
  7  8  1  0  0  0  0
  8  9  4  0  0  0  0
  9 10  4  0  0  0  0
 10 11  2  0  0  0  0
  8 12  1  0  0  0  0
 11 12  1  0  0  0  0
  4 13  1  0  0  0  0
  7 13  1  0  0  0  0
  1 14  1  0  0  0  0
  1 15  1  0  0  0  0
  1 16  1  0  0  0  0
  2 17  1  0  0  0  0
  2 18  1  0  0  0  0
  3 19  1  0  0  0  0
  3 20  1  0  0  0  0
  5 21  1  0  0  0  0
  6 22  1  0  0  0  0
  9 23  1  0  0  0  0
 10 24  1  0  0  0  0
 11 25  1  0  0  0  0
M  CHG  1   1   1
M  END
