13

N          0.90007       -0.01834       -0.10470
C          2.39208       -0.00106       -0.08025
C          2.90199        0.77137        1.13536
C          2.39725        0.12119        2.41321
C          1.96428       -0.43652        3.50935
H          0.54227       -0.54575       -0.91146
H          0.50442        0.92958       -0.14667
H          0.52517       -0.46905        0.74385
H          2.71872        0.46359       -1.01513
H          2.71111       -1.04790       -0.06045
H          2.55834        1.81124        1.10214
H          3.99702        0.77671        1.14192
H          1.63483       -0.88090        4.42336
