42
 xtb: 6.5.1 (fef0646)
N           -5.86567837702859        0.67691097004704        0.80425286240080
C           -4.77181256606099        1.47450960851840        0.16840223941264
C           -3.38072503706195        0.94745448861111        0.50010902506147
C           -2.27214502800622        1.80318758643493       -0.11695487827898
C           -0.85759357020434        1.35232057927814        0.26013826286471
C           -0.48110565516699       -0.01904725396562       -0.30356917876312
C            0.93620787567688       -0.46555491990411        0.06708251067504
C            2.03654426356404        0.38401234593080       -0.57043704863310
C            3.44182207417559       -0.12518975759298       -0.24786203405751
C            4.54483867965527        0.72593907843840       -0.87801783957967
C            5.95560015730425        0.18590374336518       -0.62689888986793
C            6.37965141618481        0.23168373706382        0.84226608161817
C            7.80385233668072       -0.25961709901571        1.05756226533183
Cl          -5.04370968463058       -2.84780319606347       -0.49441752787773
H           -5.77270642253748        0.55543096291645        1.78359147390470
H           -5.73662734468536       -0.39730131044985        0.43029542933656
H           -6.78916161821451        0.88929611614679        0.50360875418374
H           -4.89959501853704        2.46606063454037        0.50905089435021
H           -4.89809411537568        1.47400447883970       -0.92534392414077
H           -3.26954163747143       -0.10109005363619        0.17205394616190
H           -3.25084466926696        0.90398833904409        1.59113794153474
H           -2.43007372631714        2.84506818301464        0.18705939127887
H           -2.38128407538742        1.80198511541378       -1.20673870152693
H           -0.75399346103255        1.34167233673194        1.35040341882162
H           -0.13230350063460        2.10110009340515       -0.08822670667826
H           -0.58606205030217       -0.00486199515457       -1.39480665974038
H           -1.20387298971206       -0.76325808605423        0.04556719725046
H            1.08578899327608       -1.51208650657781       -0.22195612480052
H            1.05188504893510       -0.45056480519351        1.15794480973406
H            1.94607935034288        1.42725732592447       -0.24461677706082
H            1.89675117000096        0.41263798624320       -1.65788586874328
H            3.54281858088223       -1.16421961748778       -0.58312147103488
H            3.57324905551821       -0.16249912154924        0.83976849399116
H            4.47368830143227        1.75356772388655       -0.50367860758840
H            4.36167827957905        0.80231867604425       -1.95816823750273
H            6.68475672880956        0.74876126862013       -1.22470218814261
H            6.02438627349359       -0.84590352549759       -0.99420048206737
H            5.68504174677996       -0.36648662432814        1.44550655920015
H            6.27257581408329        1.25669782185355        1.21813865815252
H            7.92143302577425       -1.29187820640084        0.72202724289169
H            8.09783479308582       -0.22120138791124        2.10889051921729
H            8.51957086091982        0.34366809591323        0.49556981275785
