47
 xtb: 6.5.1 (fef0646)
N           -6.83372541680466       -3.18806760245733        0.22814492460824
C           -7.68325210421130       -2.12290707715688        0.84067791695012
C           -7.80834027569201       -0.87297622559368       -0.03377961791274
C           -6.56037961214775       -0.06020569389109       -0.09496160309014
C           -6.48810931703895        1.29575095120400       -0.23567322298365
C           -5.17242462584185        1.80758653538447       -0.26748063453630
C           -4.19388120958205        0.84581325124092       -0.15489804073224
C           -2.78453086281576        1.04368485392044       -0.15628972667036
C           -2.11248871679128        2.24810664511554       -0.24444991135091
C           -0.71746143132901        2.14492216952909       -0.22223371724286
C            0.15458171298955        3.34742557947606       -0.30670559642977
C           -0.25849385590537        0.82675563174107       -0.11328602031647
C            1.09072037742979        0.39151287752461       -0.06032644823387
C            1.54187414978524       -0.93028102466574        0.02484557078098
C            0.70171887700654       -2.04174005750625        0.07306790824176
N           -0.01335246449965       -2.95810828541830        0.11391505708288
C            2.96139349002699       -1.05645071466009        0.06134787319897
C            3.58714577101190       -2.30092590748354        0.14668832426156
N            4.12197136178258       -3.33083338900688        0.21893782758066
C            3.64213189186390        0.16253800656249        0.00945341488380
C            5.05558242475141        0.35279560455365        0.03503443350705
C            5.73916139670061        1.56218868995647        0.01904509108048
C            5.10489252431890        2.90759104910171       -0.03322443461909
C            7.14585897509901        1.40606136027170        0.05399856686709
C            7.56256008006778        0.11660770395621        0.09199585771867
S            6.22562477706649       -0.95345930207857        0.06683449907390
S            2.47479478239249        1.43918598675347       -0.08796578328755
S           -1.63687718270613       -0.24746627902590       -0.04522193954728
S           -4.96121639582779       -0.70748273958236        0.01814850480031
H           -5.89444698019805       -2.81156241383028        0.02521892261157
H           -7.22433078248171       -3.51851501930696       -0.66618431113358
H           -6.72178477897890       -3.99548434506805        0.84713526196061
H           -7.29461973233530       -1.85311564809549        1.81005797615546
H           -8.68719110262837       -2.55334776871608        1.01457886627696
H           -8.62352031929869       -0.23806610099736        0.32574126341839
H           -8.08434585687232       -1.15519186134804       -1.06067669675360
H           -7.36388353251042        1.92405321048651       -0.27979641994260
H           -4.95522162611800        2.86233796195631       -0.33377390877182
H           -2.62127993304808        3.19629763605834       -0.30819504698100
H            0.76559132522800        3.44201617951907        0.60284380237329
H           -0.43624433712099        4.25979658229191       -0.39156694208130
H            0.81661507612332        3.28876147686970       -1.15905896791916
H            4.45556580164729        3.07279464551143        0.78192120558573
H            4.51131520463515        3.00229863542278       -0.98553624526942
H            5.85639870452304        3.69568921210549       -0.08467775326381
H            7.82570156055538        2.24349491790547        0.01195834910725
H            8.58497712871803       -0.20844953527791        0.13421252443228
