 xtb: 6.5.1 (fef0646)
          01242315333D

 21 21  0     0  0            999 V2000
    2.8237    0.1204    1.1459 N   0  0  0  0  0  0  0  0  0  0  0  0
    2.4812   -0.2849   -0.2389 C   0  0  0  0  0  0  0  0  0  0  0  0
    2.9967    0.7536   -1.2344 C   0  0  0  0  0  0  0  0  0  0  0  0
    4.5017    0.7918   -1.2741 C   0  0  0  0  0  0  0  0  0  0  0  0
    5.2110   -0.2513   -1.8611 C   0  0  0  0  0  0  0  0  0  0  0  0
    6.5933   -0.2384   -1.8990 C   0  0  0  0  0  0  0  0  0  0  0  0
    7.2712    0.8329   -1.3421 C   0  0  0  0  0  0  0  0  0  0  0  0
    9.2186    0.8652   -1.3987 Br  0  0  0  0  0  0  0  0  0  0  0  0
    6.5916    1.8835   -0.7527 C   0  0  0  0  0  0  0  0  0  0  0  0
    5.2072    1.8531   -0.7190 C   0  0  0  0  0  0  0  0  0  0  0  0
    2.5407   -0.6009    1.8185 H   0  0  0  0  0  0  0  0  0  0  0  0
    2.3520    1.0002    1.3870 H   0  0  0  0  0  0  0  0  0  0  0  0
    3.8372    0.2672    1.2243 H   0  0  0  0  0  0  0  0  0  0  0  0
    1.3993   -0.3738   -0.3280 H   0  0  0  0  0  0  0  0  0  0  0  0
    2.9337   -1.2534   -0.4490 H   0  0  0  0  0  0  0  0  0  0  0  0
    2.6094    1.7403   -0.9835 H   0  0  0  0  0  0  0  0  0  0  0  0
    2.6247    0.4935   -2.2248 H   0  0  0  0  0  0  0  0  0  0  0  0
    4.6855   -1.0797   -2.3099 H   0  0  0  0  0  0  0  0  0  0  0  0
    7.1411   -1.0447   -2.3597 H   0  0  0  0  0  0  0  0  0  0  0  0
    7.1367    2.7125   -0.3312 H   0  0  0  0  0  0  0  0  0  0  0  0
    4.6843    2.6844   -0.2722 H   0  0  0  0  0  0  0  0  0  0  0  0
  1  2  1  0  0  0  0
  2  3  1  0  0  0  0
  3  4  1  0  0  0  0
  4  5  4  0  0  0  0
  5  6  4  0  0  0  0
  6  7  4  0  0  0  0
  7  8  1  0  0  0  0
  7  9  4  0  0  0  0
  4 10  4  0  0  0  0
  9 10  4  0  0  0  0
  1 11  1  0  0  0  0
  1 12  1  0  0  0  0
  1 13  1  0  0  0  0
  2 14  1  0  0  0  0
  2 15  1  0  0  0  0
  3 16  1  0  0  0  0
  3 17  1  0  0  0  0
  5 18  1  0  0  0  0
  6 19  1  0  0  0  0
  9 20  1  0  0  0  0
 10 21  1  0  0  0  0
M  CHG  1   1   1
M  END
