 xtb: 6.5.1 (fef0646)
          01242317093D

 17 16  0     0  0            999 V2000
   -1.6476    0.7916   -0.4040 N   0  0  0  0  0  0  0  0  0  0  0  0
   -1.2691   -0.5813    0.0481 C   0  0  0  0  0  0  0  0  0  0  0  0
    0.0407   -0.6605    0.8389 C   0  0  0  0  0  0  0  0  0  0  0  0
    1.3273   -0.5881   -0.0047 C   0  0  0  0  0  0  0  0  0  0  0  0
    1.7735    0.8217   -0.3718 C   0  0  0  0  0  0  0  0  0  0  0  0
   -1.0009    1.1454   -1.1159 H   0  0  0  0  0  0  0  0  0  0  0  0
   -1.6492    1.4478    0.3839 H   0  0  0  0  0  0  0  0  0  0  0  0
   -2.5852    0.7970   -0.8199 H   0  0  0  0  0  0  0  0  0  0  0  0
   -1.2214   -1.2498   -0.8190 H   0  0  0  0  0  0  0  0  0  0  0  0
   -2.0905   -0.9655    0.6667 H   0  0  0  0  0  0  0  0  0  0  0  0
    0.0460   -1.6005    1.4070 H   0  0  0  0  0  0  0  0  0  0  0  0
    0.0571    0.1275    1.5987 H   0  0  0  0  0  0  0  0  0  0  0  0
    1.2006   -1.1924   -0.9111 H   0  0  0  0  0  0  0  0  0  0  0  0
    2.1441   -1.0759    0.5448 H   0  0  0  0  0  0  0  0  0  0  0  0
    1.9053    1.4384    0.5183 H   0  0  0  0  0  0  0  0  0  0  0  0
    1.0527    1.3245   -1.0136 H   0  0  0  0  0  0  0  0  0  0  0  0
    2.7248    0.8167   -0.9077 H   0  0  0  0  0  0  0  0  0  0  0  0
  1  2  1  0  0  0  0
  2  3  1  0  0  0  0
  3  4  1  0  0  0  0
  4  5  1  0  0  0  0
  1  6  1  0  0  0  0
  1  7  1  0  0  0  0
  1  8  1  0  0  0  0
  2  9  1  0  0  0  0
  2 10  1  0  0  0  0
  3 11  1  0  0  0  0
  3 12  1  0  0  0  0
  4 13  1  0  0  0  0
  4 14  1  0  0  0  0
  5 15  1  0  0  0  0
  5 16  1  0  0  0  0
  5 17  1  0  0  0  0
M  CHG  1   1   1
M  END
