15

N          1.08744        0.05364        0.05287
C          2.55193        0.05534       -0.01914
C          3.21510       -1.01569        0.87521
C          4.26870        0.05106        1.24404
C          3.21171        1.11811        0.88748
H          0.67984       -0.69835       -0.51899
H          0.68797        0.93785       -0.28985
H          0.73772       -0.07850        1.01182
H          2.91985        0.06568       -1.05180
H          3.60203       -1.89516        0.35436
H          2.61335       -1.34567        1.73028
H          5.14081        0.05602        0.58060
H          4.60762        0.04676        2.28236
H          3.59597        2.00383        0.37439
H          2.60614        1.43787        1.74390
