 xtb: 6.5.1 (fef0646)
          01242310093D

 25 26  0     0  0            999 V2000
    4.3087   -0.1861    1.5053 N   0  0  0  0  0  0  0  0  0  0  0  0
    4.2561   -0.6773    0.0996 C   0  0  0  0  0  0  0  0  0  0  0  0
    3.5177    0.2840   -0.8297 C   0  0  0  0  0  0  0  0  0  0  0  0
    2.0818    0.4469   -0.4764 C   0  0  0  0  0  0  0  0  0  0  0  0
    1.5177    1.5357    0.1537 C   0  0  0  0  0  0  0  0  0  0  0  0
    0.1400    1.4267    0.3569 C   0  0  0  0  0  0  0  0  0  0  0  0
   -0.4055    0.2369   -0.1165 C   0  0  0  0  0  0  0  0  0  0  0  0
   -1.7636   -0.1356   -0.0633 C   0  0  0  0  0  0  0  0  0  0  0  0
   -2.3153   -1.3198   -0.5459 C   0  0  0  0  0  0  0  0  0  0  0  0
   -3.6972   -1.4138   -0.3606 C   0  0  0  0  0  0  0  0  0  0  0  0
   -4.2451   -0.3212    0.2630 C   0  0  0  0  0  0  0  0  0  0  0  0
   -3.0390    0.8334    0.6244 S   0  0  0  0  0  0  0  0  0  0  0  0
    0.8717   -0.7305   -0.8003 S   0  0  0  0  0  0  0  0  0  0  0  0
    4.8002    0.7181    1.5634 H   0  0  0  0  0  0  0  0  0  0  0  0
    4.8018   -0.8476    2.1248 H   0  0  0  0  0  0  0  0  0  0  0  0
    3.3601   -0.0499    1.8853 H   0  0  0  0  0  0  0  0  0  0  0  0
    3.7650   -1.6576    0.0781 H   0  0  0  0  0  0  0  0  0  0  0  0
    5.2793   -0.8467   -0.2602 H   0  0  0  0  0  0  0  0  0  0  0  0
    3.5858   -0.0608   -1.8685 H   0  0  0  0  0  0  0  0  0  0  0  0
    4.0074    1.2638   -0.8097 H   0  0  0  0  0  0  0  0  0  0  0  0
    2.0912    2.4018    0.4500 H   0  0  0  0  0  0  0  0  0  0  0  0
   -0.4565    2.1951    0.8255 H   0  0  0  0  0  0  0  0  0  0  0  0
   -1.7239   -2.0873   -1.0228 H   0  0  0  0  0  0  0  0  0  0  0  0
   -4.2805   -2.2667   -0.6807 H   0  0  0  0  0  0  0  0  0  0  0  0
   -5.2863   -0.1927    0.4983 H   0  0  0  0  0  0  0  0  0  0  0  0
  1  2  1  0  0  0  0
  2  3  1  0  0  0  0
  3  4  1  0  0  0  0
  4  5  2  0  0  0  0
  5  6  4  0  0  0  0
  6  7  4  0  0  0  0
  7  8  1  0  0  0  0
  8  9  4  0  0  0  0
  9 10  4  0  0  0  0
 10 11  2  0  0  0  0
  8 12  1  0  0  0  0
 11 12  1  0  0  0  0
  4 13  1  0  0  0  0
  7 13  1  0  0  0  0
  1 14  1  0  0  0  0
  1 15  1  0  0  0  0
  1 16  1  0  0  0  0
  2 17  1  0  0  0  0
  2 18  1  0  0  0  0
  3 19  1  0  0  0  0
  3 20  1  0  0  0  0
  5 21  1  0  0  0  0
  6 22  1  0  0  0  0
  9 23  1  0  0  0  0
 10 24  1  0  0  0  0
 11 25  1  0  0  0  0
M  CHG  1   1   1
M  END
