  19

 N         -2.2608522465       -0.8963569828       -0.7301571988
 C         -0.9940140052       -0.4204153600       -0.1090577658
 C          0.2370464313       -0.9528091516       -0.8315602801
 C          1.5124367661       -0.4675487004       -0.2348973527
 C          2.2582589762       -1.1264564883        0.6884906420
 C          3.4277908715       -0.4144408750        1.0896391495
 C          3.5608029473        0.7807495347        0.4720239795
 S          2.2508088358        1.0599836555       -0.6182133369
 Cl        -5.0617481599        0.4057797490        0.8952141413
 H         -3.0998025184       -0.5233976861       -0.2433388036
 H         -2.3189424162       -1.9264998614       -0.7108439462
 H         -2.3186700527       -0.6053425958       -1.7188443481
 H         -0.9615332723       -0.7168573479        0.9463540661
 H         -0.9721862339        0.6761188505       -0.1040987669
 H          0.2012324213       -0.6600257094       -1.8871808810
 H          0.2248335545       -2.0489162774       -0.8312401463
 H          1.9876262726       -2.0959507840        1.0799755227
 H          4.1348251759       -0.7964647552        1.8125301536
 H          4.3659404242        1.4758126667        0.6248146054
          19
        -28.59497058
 N         -1.2104699454       -1.5484247704       -1.2078344413
 C         -0.5285949029       -2.2672317132       -0.0967140400
 C         -0.0548167269       -1.3091340252        0.9932007503
 C          0.7852383165       -0.2045884412        0.4559457726
 C          0.3246387805        1.0147321517        0.0774103131
 C          1.3418506535        1.8785864774       -0.4252867792
 C          2.5681151121        1.3095593859       -0.4263547882
 S          2.5009998527       -0.3022340225        0.1916588267
 Cl        -3.2432011916        0.9320038094        0.1861337397
 H         -1.9472871486       -0.9184095127       -0.8376862641
 H         -1.6458941629       -2.1909867529       -1.8898001740
 H         -0.5414192029       -0.9524032196       -1.7200174685
 H          0.3266633121       -2.8233120660       -0.5000075015
 H         -1.2024456020       -3.0228991451        0.3266088550
 H          0.5096132424       -1.8477670329        1.7642422732
 H         -0.9212382668       -0.8759703079        1.5070327010
 H         -0.7185306009        1.2885204643        0.1368529381
 H          1.1471297965        2.8834184268       -0.7726789603
 H          3.4732880030        1.7804617434       -0.7634121078
          19
        -28.59522971
 N         -1.2170551700       -1.5409581822       -1.2095817200
 C         -0.5361271081       -2.2597533950       -0.0980302820
 C         -0.0616365371       -1.3015761939        0.9914448566
 C          0.7856407107       -0.2023390484        0.4546157219
 C          0.3328239021        1.0188130866        0.0725094197
 C          1.3562513880        1.8763086390       -0.4286113926
 C          2.5794187217        1.3005708127       -0.4245655507
 S          2.5015935479       -0.3100424290        0.1952948378
 Cl        -3.2476624520        0.9312743943        0.1878291203
 H         -1.9542149533       -0.9110779144       -0.8398222365
 H         -1.6519257026       -2.1837169629       -1.8918241278
 H         -0.5477519998       -0.9449211060       -1.7213803252
 H          0.3187846297       -2.8168931400       -0.5006562969
 H         -1.2108421669       -3.0145934021        0.3254186166
 H          0.4975168451       -1.8411999956        1.7656619177
 H         -0.9278243016       -0.8634637723        1.5013715516
 H         -0.7090944149        1.2984107265        0.1271031661
 H          1.1687322112        2.8819428665       -0.7777631783
 H          3.4884339265        1.7660743303       -0.7588247244
          19
        -28.59533916
 N         -1.2140964860       -1.5401939916       -1.2092885334
 C         -0.5392604708       -2.2554588973       -0.0913658871
 C         -0.0677622781       -1.2927679303        0.9953590016
 C          0.7845172168       -0.1981377039        0.4570906359
 C          0.3387945621        1.0275304293        0.0809282249
 C          1.3663896700        1.8793024028       -0.4213882637
 C          2.5852211588        1.2946078046       -0.4243331999
 S          2.4981937922       -0.3180746643        0.1890112188
 Cl        -3.2501711809        0.9291651122        0.1820546631
 H         -1.9506955882       -0.9065264882       -0.8452868285
 H         -1.6491616876       -2.1845597543       -1.8895829224
 H         -0.5410062707       -0.9488832748       -1.7215108611
 H          0.3160661281       -2.8164091862       -0.4875949463
 H         -1.2174535410       -3.0065908838        0.3330785671
 H          0.4862949477       -1.8296383229        1.7751360182
 H         -0.9355144620       -0.8499246057        1.4986158120
 H         -0.7007653519        1.3145040685        0.1426915802
 H          1.1848279470        2.8883396580       -0.7637216490
 H          3.4971052166        1.7546100083       -0.7583514902
