  19

 N          1.1232000000       -0.2085600000       -0.3035300000
 C          2.5935100000       -0.1436100000       -0.3137400000
 C          3.1279200000       -0.3716900000       -1.7237000000
 C          4.6235700000       -0.2818200000       -1.7435900000
 C          5.5472500000       -1.2875800000       -1.5491200000
 C          6.8874600000       -0.8083600000       -1.6055600000
 C          6.9439800000        0.5451400000       -1.8480700000
 S          5.3871600000        1.2305900000       -2.0136800000
 Cl         0.1429000000        0.9893500000        2.1243300000
 H          0.8052500000        0.1283700000        0.6575900000
 H          0.6979800000       -1.1327600000       -0.3848800000
 H          0.6503000000        0.4764100000       -0.8997800000
 H          2.9508300000       -0.9060700000        0.3870300000
 H          2.8730700000        0.8446900000        0.0648500000
 H          2.6911400000        0.3597300000       -2.4153000000
 H          2.8190800000       -1.3604900000       -2.0862100000
 H          5.2823200000       -2.3223200000       -1.3635200000
 H          7.7691600000       -1.4249900000       -1.4715600000
 H          7.8248400000        1.1663900000       -1.9368400000
