  19

 N          0.9709272402       -0.2120982901        0.2791966826
 C          2.4426809402       -0.1981498648        0.2012273430
 C          3.0584412620       -1.0801538838        1.2924620543
 C          4.5441781072       -1.0984795044        1.1667949827
 C          5.4721061356       -0.4348742438        1.9049672972
 C          6.7984407969       -0.6642318560        1.4687193000
 C          6.8603998366       -1.4953770340        0.3997061939
 S          5.3023010222       -2.0195416115       -0.0984639504
 Cl        -0.1471792246        1.7782105652       -1.7301908983
 H          0.5648230757        0.4496610201       -0.4325078102
 H          0.6494355407        0.0999573426        1.1988513784
 H          0.6009814538       -1.1459736048        0.0868344745
 H          2.7889089102        0.8297130915        0.3064758836
 H          2.7471063868       -0.5560918537       -0.7823446295
 H          2.6812165827       -2.0990136629        1.1948320348
 H          2.7999151013       -0.6952591899        2.2790640125
 H          5.2281057161        0.1964176205        2.7399598651
 H          7.6649067949       -0.2272888819        1.9317672104
 H          7.7234743215       -1.8395061585       -0.1346414249
