 xtb: 6.5.1 (fef0646)
          01242310103D

 16 14  0     0  0            999 V2000
   -0.3132    1.1059    0.9803 N   0  0  0  0  0  0  0  0  0  0  0  0
   -1.3200    0.9947   -0.1095 C   0  0  0  0  0  0  0  0  0  0  0  0
   -1.2586   -0.3633   -0.8059 C   0  0  0  0  0  0  0  0  0  0  0  0
   -1.5430   -1.4998    0.1176 C   0  0  0  0  0  0  0  0  0  0  0  0
   -2.7570   -1.7757    0.5549 C   0  0  0  0  0  0  0  0  0  0  0  0
    2.8279    0.4708   -0.3695 Cl  0  0  0  0  0  0  0  0  0  0  0  0
   -0.3285    2.0330    1.4383 H   0  0  0  0  0  0  0  0  0  0  0  0
    0.6444    0.9495    0.6112 H   0  0  0  0  0  0  0  0  0  0  0  0
   -0.4774    0.3934    1.7092 H   0  0  0  0  0  0  0  0  0  0  0  0
   -1.1660    1.8041   -0.8351 H   0  0  0  0  0  0  0  0  0  0  0  0
   -2.3233    1.1543    0.3036 H   0  0  0  0  0  0  0  0  0  0  0  0
   -0.2688   -0.4926   -1.2624 H   0  0  0  0  0  0  0  0  0  0  0  0
   -1.9687   -0.3956   -1.6427 H   0  0  0  0  0  0  0  0  0  0  0  0
   -0.7080   -2.0860    0.4724 H   0  0  0  0  0  0  0  0  0  0  0  0
   -3.6034   -1.1950    0.2400 H   0  0  0  0  0  0  0  0  0  0  0  0
   -2.9474   -2.5844    1.2363 H   0  0  0  0  0  0  0  0  0  0  0  0
  1  2  1  0  0  0  0
  2  3  1  0  0  0  0
  3  4  1  0  0  0  0
  4  5  2  0  0  0  0
  1  7  1  0  0  0  0
  1  8  1  0  0  0  0
  1  9  1  0  0  0  0
  2 10  1  0  0  0  0
  2 11  1  0  0  0  0
  3 12  1  0  0  0  0
  3 13  1  0  0  0  0
  4 14  1  0  0  0  0
  5 15  1  0  0  0  0
  5 16  1  0  0  0  0
M  END
