 xtb: 6.5.1 (fef0646)
          01242310043D

 27 27  0     0  0            999 V2000
   -3.1508   -1.1536   -1.1026 N   0  0  0  0  0  0  0  0  0  0  0  0
   -2.7713    0.1090   -0.4069 C   0  0  0  0  0  0  0  0  0  0  0  0
   -1.2644    0.2101   -0.1252 C   0  0  0  0  0  0  0  0  0  0  0  0
   -0.7732   -0.8530    0.9062 C   0  0  0  0  0  0  0  0  0  0  0  0
    0.5007   -0.4230    1.6775 C   0  0  0  0  0  0  0  0  0  0  0  0
    1.4208    0.4934    0.8360 C   0  0  0  0  0  0  0  0  0  0  0  0
    1.9324   -0.2439   -0.3786 C   0  0  0  0  0  0  0  0  0  0  0  0
    3.1915   -0.7152   -0.3236 O   0  0  0  0  0  0  0  0  0  0  0  0
    1.2006   -0.3938   -1.3278 O   0  0  0  0  0  0  0  0  0  0  0  0
    0.6874    1.7969    0.4040 C   0  0  0  0  0  0  0  0  0  0  0  0
   -0.8494    1.6332    0.3273 C   0  0  0  0  0  0  0  0  0  0  0  0
   -2.9252   -1.9834   -0.5346 H   0  0  0  0  0  0  0  0  0  0  0  0
   -2.6514   -1.2477   -1.9995 H   0  0  0  0  0  0  0  0  0  0  0  0
   -4.1613   -1.1869   -1.3072 H   0  0  0  0  0  0  0  0  0  0  0  0
   -3.3278    0.1979    0.5324 H   0  0  0  0  0  0  0  0  0  0  0  0
   -3.0885    0.9595   -1.0219 H   0  0  0  0  0  0  0  0  0  0  0  0
   -0.7396    0.0017   -1.0727 H   0  0  0  0  0  0  0  0  0  0  0  0
   -0.5787   -1.7987    0.3863 H   0  0  0  0  0  0  0  0  0  0  0  0
   -1.5839   -1.0676    1.6108 H   0  0  0  0  0  0  0  0  0  0  0  0
    1.0657   -1.3080    1.9973 H   0  0  0  0  0  0  0  0  0  0  0  0
    0.2182    0.0975    2.6000 H   0  0  0  0  0  0  0  0  0  0  0  0
    2.3098    0.7573    1.4318 H   0  0  0  0  0  0  0  0  0  0  0  0
    3.3992   -1.1581   -1.1644 H   0  0  0  0  0  0  0  0  0  0  0  0
    1.0701    2.0918   -0.5807 H   0  0  0  0  0  0  0  0  0  0  0  0
    0.9467    2.6196    1.0818 H   0  0  0  0  0  0  0  0  0  0  0  0
   -1.2829    2.3817   -0.3467 H   0  0  0  0  0  0  0  0  0  0  0  0
   -1.2937    1.8321    1.3083 H   0  0  0  0  0  0  0  0  0  0  0  0
  1  2  1  0  0  0  0
  2  3  1  0  0  0  0
  3  4  1  0  0  0  0
  4  5  1  0  0  0  0
  5  6  1  0  0  0  0
  6  7  1  0  0  0  0
  7  8  1  0  0  0  0
  7  9  2  0  0  0  0
  6 10  1  0  0  0  0
  3 11  1  0  0  0  0
 10 11  1  0  0  0  0
  1 12  1  0  0  0  0
  1 13  1  0  0  0  0
  1 14  1  0  0  0  0
  2 15  1  0  0  0  0
  2 16  1  0  0  0  0
  3 17  1  0  0  0  0
  4 18  1  0  0  0  0
  4 19  1  0  0  0  0
  5 20  1  0  0  0  0
  5 21  1  0  0  0  0
  6 22  1  0  0  0  0
  8 23  1  0  0  0  0
 10 24  1  0  0  0  0
 10 25  1  0  0  0  0
 11 26  1  0  0  0  0
 11 27  1  0  0  0  0
M  CHG  1   1   1
M  END
