16
2.461
N            1.91292  -2.50240   0.63924
C            0.51934  -1.98437   0.73346
C            0.20657  -0.98623  -0.36752
S            1.28720   0.44519  -0.37978
C            0.75004   1.20557   1.12778
Cl          -2.65744   1.47395  -0.61253
H            2.13150  -3.17012   1.39454
H            2.58739  -1.72895   0.69375
H            2.06462  -2.97734  -0.25952
H            0.36774  -1.51832   1.71388
H           -0.18771  -2.82327   0.69872
H           -0.82617  -0.63329  -0.30270
H            0.30567  -1.46723  -1.34351
H            1.21836   2.18128   1.23572
H            1.02680   0.59855   1.98618
H           -0.32917   1.34054   1.12493
