19
 xtb: 6.5.1 (fef0646)
N           -1.23843023268187       -0.34962965391331        0.63990580921833
C           -0.38273169819592       -0.21846916073592       -0.57736960694650
C            0.99299035799642        0.31019802410631       -0.30092705233782
C            2.03618590469188       -0.55248266478151        0.00287626668478
C            3.30394568863599       -0.06664358583159        0.25819596285914
C            3.54557452999790        1.29162724755517        0.21654107962469
C            2.51465912907154        2.16195800300378       -0.07509158624907
C            1.24766909809806        1.67386311298719       -0.32975092229324
Cl          -4.15194640005407       -1.47527883533084        0.00707062236479
H           -2.12643121033653       -0.68645917801791        0.48412737691425
H           -1.27144737858293        0.59805502578053        1.13094192741974
H           -0.72221199266378       -0.95322540975498        1.34938028138666
H           -0.86935580330802        0.44159567416919       -1.29136117509675
H           -0.28977583510797       -1.18788071494873       -1.05988734042499
H            1.86839652414645       -1.60648036765175        0.02907268819070
H            4.12470222548675       -0.74276051527472        0.49307022567660
H            4.55146933239850        1.67883023764055        0.42488957672670
H            2.71770073135690        3.23170253639533       -0.10152633299511
H            0.46392366292576        2.36030106668990       -0.56336977180704
