23
 xtb: 6.5.1 (fef0646)
N           -3.38619918732776        1.12033013344921       -0.50346036703330
C           -2.22829296314380        1.77883077741290        0.16709574721514
C           -0.97312302123098        1.02728881822958       -0.06911787134827
C            0.23053127346689        1.44427579930718        0.32019444534633
C            1.46850160771522        0.68624977774714        0.11642740367009
C            1.45975750719670       -0.69032627008992       -0.11206482889466
C            2.63744995190292       -1.38382259186193       -0.30298379147059
C            3.84788419829746       -0.71947222111660       -0.26338008950497
C            3.87765325107780        0.64148715531727       -0.02957070751168
C            2.70079809065038        1.33787416961562        0.15864674239691
Cl          -3.05331281625835       -2.03715248241519        0.23322099523753
H           -4.28038911463169        1.64815579653889       -0.27590073571408
H           -3.45512509068967        0.18261531868425       -0.27274165218032
H           -3.28178792848122        1.24007010966051       -1.54963519396047
H           -2.40408267226033        1.85521154221572        1.24216807611164
H           -2.09441786716111        2.84675375983696       -0.16686952648668
H           -1.05998174672833        0.12394375923590       -0.63186067438011
H            0.30891561243800        2.37754244314907        0.86378311406595
H            0.51707927670030       -1.21910970005596       -0.11803112082259
H            2.60777879022343       -2.44774866945912       -0.48200666936363
H            4.76280084848527       -1.26322951822846       -0.42092328937688
H            4.81980739844333        1.16075035271314       -0.00306539425755
H            2.72368128407399        2.39955271136452        0.34261163625129
