22
2.249
N           -4.32853   0.97403  -0.02133
C           -3.28118   2.00763  -0.26564
C           -2.24436   2.07902   0.86805
C           -0.94233   1.41320   0.52509
C           -0.84429   0.03182   0.46408
C            0.35173  -0.57826   0.13296
C            1.46486   0.18505  -0.14640
Br           3.10944  -0.65566  -0.60036
C            1.37965   1.55987  -0.09703
C            0.18352   2.17099   0.23390
Cl          -3.28542  -2.33368   0.71967
H           -4.87096   1.19809   0.82347
H           -3.91346   0.03840   0.12502
H           -4.98879   0.90253  -0.80758
H           -3.76993   2.98040  -0.40491
H           -2.77099   1.80434  -1.21483
H           -2.65604   1.61880   1.77216
H           -2.04659   3.12162   1.14417
H           -1.71344  -0.56860   0.66895
H            0.42700  -1.65226   0.08618
H            2.25493   2.14773  -0.31989
H            0.11914   3.24527   0.26684
