22
0.667
N           -4.46200   1.30462   0.08300
C           -3.01457   1.19523  -0.25731
C           -2.20415   0.55367   0.86345
C           -0.75031   0.40931   0.52163
C           -0.28703  -0.72591  -0.12782
C            1.04722  -0.84473  -0.47257
C            1.93204   0.17082  -0.17842
Br           3.76689   0.00543  -0.65149
C            1.48154   1.30754   0.45830
C            0.14747   1.42862   0.80380
Cl          -5.52943  -1.95763   0.82207
H           -4.59991   1.88783   0.91860
H           -4.85155   0.36954   0.29144
H           -5.01157   1.71289  -0.68525
H           -2.60819   2.18701  -0.48679
H           -2.89334   0.61118  -1.17713
H           -2.62102  -0.42965   1.10493
H           -2.30774   1.14254   1.78098
H           -0.97910  -1.51620  -0.36469
H            1.40942  -1.72689  -0.97450
H            2.18107   2.09697   0.67911
H           -0.20521   2.32032   1.29350
