17
0.454
N           -2.46328  -0.27699   0.01126
C           -1.21091   0.53505  -0.01708
C            0.05362  -0.31908   0.00964
C            1.34932   0.49983  -0.01788
C            2.60907  -0.35606   0.01091
H           -2.51301  -0.85645   0.86146
H           -2.51595  -0.90987  -0.79979
H           -3.30430   0.31895  -0.00644
H           -1.21119   1.22671   0.83457
H           -1.21325   1.16904  -0.91249
H            0.03993  -1.01335  -0.83835
H            0.04123  -0.95676   0.90099
H            1.35473   1.19659   0.83007
H            1.35477   1.13823  -0.91060
H            3.51669   0.25258  -0.00829
H            2.65151  -1.03041  -0.84673
H            2.65034  -0.97295   0.91088
