 xtb: 6.5.1 (fef0646)
          01242310053D

 35 36  0     0  0            999 V2000
   -5.3995    0.6331    1.5214 N   0  0  0  0  0  0  0  0  0  0  0  0
   -5.5232   -0.5716    0.6532 C   0  0  0  0  0  0  0  0  0  0  0  0
   -4.8444   -0.3858   -0.7019 C   0  0  0  0  0  0  0  0  0  0  0  0
   -3.3649   -0.1660   -0.5895 C   0  0  0  0  0  0  0  0  0  0  0  0
   -2.8265    1.1172   -0.6369 C   0  0  0  0  0  0  0  0  0  0  0  0
   -1.4722    1.3208   -0.5121 C   0  0  0  0  0  0  0  0  0  0  0  0
   -0.5881    0.2411   -0.3307 C   0  0  0  0  0  0  0  0  0  0  0  0
    0.8147    0.4898   -0.2144 C   0  0  0  0  0  0  0  0  0  0  0  0
    1.7845   -0.4629   -0.0545 C   0  0  0  0  0  0  0  0  0  0  0  0
    3.1878   -0.2133    0.0576 C   0  0  0  0  0  0  0  0  0  0  0  0
    3.7390    1.0830    0.0276 C   0  0  0  0  0  0  0  0  0  0  0  0
    5.0967    1.2754    0.1367 C   0  0  0  0  0  0  0  0  0  0  0  0
    5.9480    0.1923    0.2784 C   0  0  0  0  0  0  0  0  0  0  0  0
    5.4319   -1.0923    0.3113 C   0  0  0  0  0  0  0  0  0  0  0  0
    4.0761   -1.2966    0.2037 C   0  0  0  0  0  0  0  0  0  0  0  0
   -1.1443   -1.0504   -0.2761 C   0  0  0  0  0  0  0  0  0  0  0  0
   -2.5012   -1.2417   -0.4006 C   0  0  0  0  0  0  0  0  0  0  0  0
   -5.8549    0.4961    2.4373 H   0  0  0  0  0  0  0  0  0  0  0  0
   -5.8359    1.4553    1.0778 H   0  0  0  0  0  0  0  0  0  0  0  0
   -4.4095    0.8633    1.6962 H   0  0  0  0  0  0  0  0  0  0  0  0
   -6.5855   -0.8117    0.5190 H   0  0  0  0  0  0  0  0  0  0  0  0
   -5.0853   -1.4343    1.1691 H   0  0  0  0  0  0  0  0  0  0  0  0
   -5.2961    0.4644   -1.2240 H   0  0  0  0  0  0  0  0  0  0  0  0
   -5.0277   -1.2543   -1.3452 H   0  0  0  0  0  0  0  0  0  0  0  0
   -3.4852    1.9577   -0.7797 H   0  0  0  0  0  0  0  0  0  0  0  0
   -1.0738    2.3208   -0.5580 H   0  0  0  0  0  0  0  0  0  0  0  0
    1.1185    1.5200   -0.2654 H   0  0  0  0  0  0  0  0  0  0  0  0
    1.4820   -1.4940   -0.0130 H   0  0  0  0  0  0  0  0  0  0  0  0
    3.0941    1.9372   -0.0807 H   0  0  0  0  0  0  0  0  0  0  0  0
    5.5023    2.2747    0.1119 H   0  0  0  0  0  0  0  0  0  0  0  0
    7.0120    0.3491    0.3626 H   0  0  0  0  0  0  0  0  0  0  0  0
    6.0968   -1.9347    0.4211 H   0  0  0  0  0  0  0  0  0  0  0  0
    3.6810   -2.2986    0.2292 H   0  0  0  0  0  0  0  0  0  0  0  0
   -0.5037   -1.9036   -0.1358 H   0  0  0  0  0  0  0  0  0  0  0  0
   -2.9100   -2.2377   -0.3570 H   0  0  0  0  0  0  0  0  0  0  0  0
  1  2  1  0  0  0  0
  2  3  1  0  0  0  0
  3  4  1  0  0  0  0
  4  5  4  0  0  0  0
  5  6  4  0  0  0  0
  6  7  4  0  0  0  0
  7  8  1  0  0  0  0
  8  9  2  0  0  0  0
  9 10  1  0  0  0  0
 10 11  4  0  0  0  0
 11 12  4  0  0  0  0
 12 13  4  0  0  0  0
 13 14  4  0  0  0  0
 10 15  4  0  0  0  0
 14 15  4  0  0  0  0
  7 16  4  0  0  0  0
  4 17  4  0  0  0  0
 16 17  4  0  0  0  0
  1 18  1  0  0  0  0
  1 19  1  0  0  0  0
  1 20  1  0  0  0  0
  2 21  1  0  0  0  0
  2 22  1  0  0  0  0
  3 23  1  0  0  0  0
  3 24  1  0  0  0  0
  5 25  1  0  0  0  0
  6 26  1  0  0  0  0
  8 27  1  0  0  0  0
  9 28  1  0  0  0  0
 11 29  1  0  0  0  0
 12 30  1  0  0  0  0
 13 31  1  0  0  0  0
 14 32  1  0  0  0  0
 15 33  1  0  0  0  0
 16 34  1  0  0  0  0
 17 35  1  0  0  0  0
M  CHG  1   1   1
M  END
