  11

 N         -1.4964197665       -0.5245583179       -0.0904724551
 C         -0.6961676843        0.6807731442        0.2735259741
 C          0.7049656314        0.5908186576       -0.3140368783
 F          1.2252688687       -0.6068146188       -0.0508738215
 H         -2.4088064097       -0.5221128860        0.3715307939
 H         -0.9777586637       -1.3602904208        0.1904683221
 H         -1.6387637356       -0.5639319129       -1.1014943525
 H         -0.6238108521        0.7307986009        1.3700678655
 H         -1.2130446908        1.5939141466       -0.0565971749
 H          1.3883631181        1.3471045375        0.1010247210
 H          0.6981036595        0.7018516138       -1.4077605542
          11
        -15.16768843
 N         -1.4545932669       -0.5153824231        0.1067789763
 C         -0.6828315272        0.7132969406       -0.2407859453
 C          0.7501166680        0.6043964616        0.2594423539
 F          1.2706018042       -0.5603236353       -0.1236095196
 H         -1.5437276356       -0.6060831650        1.1207382817
 H         -0.9471586718       -1.3316629005       -0.2434522186
 H         -2.3900031940       -0.4981560672       -0.3061628018
 H         -1.1844273696        1.6045500422        0.1647696687
 H         -0.6739618615        0.8189854542       -1.3356871245
 H          0.8031494483        0.6312602974        1.3570661057
 H          1.3984651970        1.4023823429       -0.1335196688
