  11

 N          1.0236795501       -0.0323952099       -0.0852877992
 C          2.5053687465       -0.0587344209       -0.0645210996
 C          3.0221534220       -1.4451162436       -0.4124184331
 F          2.6377418946       -2.3377995320        0.5831756151
 H          0.6730545947        0.8937954219        0.1862346341
 H          0.6568017871       -0.7298129167        0.5759637419
 H          0.6662802363       -0.2585301017       -1.0223377706
 H          2.8555971102        0.2103184229        0.9327748518
 H          2.9041377841        0.6511694857       -0.7876766893
 H          4.1118110345       -1.4668305441       -0.4477667618
 H          2.6062338398       -1.8373543616       -1.3429202892
