 xtb: 6.5.1 (fef0646)
          01242317133D

 43 46  0     0  0            999 V2000
    5.4594    0.4911   -0.9600 N   0  0  0  0  0  0  0  0  0  0  0  0
    5.2074   -0.6399   -0.0313 C   0  0  0  0  0  0  0  0  0  0  0  0
    3.7839   -1.1554   -0.1833 C   0  0  0  0  0  0  0  0  0  0  0  0
    2.8339   -0.1351    0.1052 O   0  0  0  0  0  0  0  0  0  0  0  0
    1.5096   -0.5155   -0.0125 C   0  0  0  0  0  0  0  0  0  0  0  0
    1.0788   -1.7707   -0.4283 C   0  0  0  0  0  0  0  0  0  0  0  0
   -0.2622   -2.0792   -0.5220 C   0  0  0  0  0  0  0  0  0  0  0  0
   -1.2596   -1.1604   -0.2073 C   0  0  0  0  0  0  0  0  0  0  0  0
   -0.8682    0.1393    0.2232 C   0  0  0  0  0  0  0  0  0  0  0  0
   -1.8385    1.1273    0.5615 C   0  0  0  0  0  0  0  0  0  0  0  0
   -1.3969    2.3743    0.9788 C   0  0  0  0  0  0  0  0  0  0  0  0
   -0.0449    2.6734    1.0726 C   0  0  0  0  0  0  0  0  0  0  0  0
    0.8939    1.7333    0.7500 C   0  0  0  0  0  0  0  0  0  0  0  0
    0.5106    0.4576    0.3201 C   0  0  0  0  0  0  0  0  0  0  0  0
   -2.6758   -1.4901   -0.3029 C   0  0  0  0  0  0  0  0  0  0  0  0
   -3.1177   -2.7407   -0.7113 C   0  0  0  0  0  0  0  0  0  0  0  0
   -4.4713   -3.0455   -0.7986 C   0  0  0  0  0  0  0  0  0  0  0  0
   -5.4138   -2.1110   -0.4811 C   0  0  0  0  0  0  0  0  0  0  0  0
   -5.0289   -0.8225   -0.0593 C   0  0  0  0  0  0  0  0  0  0  0  0
   -5.9901    0.1534    0.2721 C   0  0  0  0  0  0  0  0  0  0  0  0
   -5.6016    1.3963    0.6792 C   0  0  0  0  0  0  0  0  0  0  0  0
   -4.2518    1.7179    0.7739 C   0  0  0  0  0  0  0  0  0  0  0  0
   -3.2603    0.8005    0.4624 C   0  0  0  0  0  0  0  0  0  0  0  0
   -3.6489   -0.5021    0.0337 C   0  0  0  0  0  0  0  0  0  0  0  0
    8.6565    1.8558   -0.4215 Cl  0  0  0  0  0  0  0  0  0  0  0  0
    6.3989    0.9066   -0.8243 H   0  0  0  0  0  0  0  0  0  0  0  0
    4.7569    1.2267   -0.8098 H   0  0  0  0  0  0  0  0  0  0  0  0
    5.3811    0.1880   -1.9401 H   0  0  0  0  0  0  0  0  0  0  0  0
    5.3613   -0.3059    1.0008 H   0  0  0  0  0  0  0  0  0  0  0  0
    5.9350   -1.4416   -0.2053 H   0  0  0  0  0  0  0  0  0  0  0  0
    3.5952   -2.0002    0.4893 H   0  0  0  0  0  0  0  0  0  0  0  0
    3.6159   -1.4933   -1.2113 H   0  0  0  0  0  0  0  0  0  0  0  0
    1.8034   -2.5220   -0.6849 H   0  0  0  0  0  0  0  0  0  0  0  0
   -0.5345   -3.0655   -0.8506 H   0  0  0  0  0  0  0  0  0  0  0  0
   -2.1083    3.1359    1.2409 H   0  0  0  0  0  0  0  0  0  0  0  0
    0.2657    3.6516    1.4023 H   0  0  0  0  0  0  0  0  0  0  0  0
    1.9436    1.9580    0.8259 H   0  0  0  0  0  0  0  0  0  0  0  0
   -2.4058   -3.5032   -0.9692 H   0  0  0  0  0  0  0  0  0  0  0  0
   -4.7773   -4.0281   -1.1199 H   0  0  0  0  0  0  0  0  0  0  0  0
   -6.4618   -2.3488   -0.5494 H   0  0  0  0  0  0  0  0  0  0  0  0
   -7.0354   -0.0947    0.1998 H   0  0  0  0  0  0  0  0  0  0  0  0
   -6.3452    2.1354    0.9302 H   0  0  0  0  0  0  0  0  0  0  0  0
   -3.9846    2.7069    1.0984 H   0  0  0  0  0  0  0  0  0  0  0  0
  1  2  1  0  0  0  0
  2  3  1  0  0  0  0
  3  4  1  0  0  0  0
  4  5  1  0  0  0  0
  5  6  4  0  0  0  0
  6  7  4  0  0  0  0
  7  8  4  0  0  0  0
  8  9  4  0  0  0  0
  9 10  4  0  0  0  0
 10 11  4  0  0  0  0
 11 12  4  0  0  0  0
 12 13  2  0  0  0  0
  5 14  4  0  0  0  0
  9 14  4  0  0  0  0
 13 14  4  0  0  0  0
  8 15  1  0  0  0  0
 15 16  4  0  0  0  0
 16 17  4  0  0  0  0
 17 18  2  0  0  0  0
 18 19  4  0  0  0  0
 19 20  4  0  0  0  0
 20 21  2  0  0  0  0
 21 22  4  0  0  0  0
 10 23  1  0  0  0  0
 22 23  4  0  0  0  0
 15 24  4  0  0  0  0
 19 24  4  0  0  0  0
 23 24  4  0  0  0  0
  1 26  1  0  0  0  0
  1 27  1  0  0  0  0
  1 28  1  0  0  0  0
  2 29  1  0  0  0  0
  2 30  1  0  0  0  0
  3 31  1  0  0  0  0
  3 32  1  0  0  0  0
  6 33  1  0  0  0  0
  7 34  1  0  0  0  0
 11 35  1  0  0  0  0
 12 36  1  0  0  0  0
 13 37  1  0  0  0  0
 16 38  1  0  0  0  0
 17 39  1  0  0  0  0
 18 40  1  0  0  0  0
 20 41  1  0  0  0  0
 21 42  1  0  0  0  0
 22 43  1  0  0  0  0
M  END
