17
0.385
N           -1.85523   0.59899   0.34279
C           -1.06252  -0.16812  -0.66497
C            0.04417  -1.02231  -0.04862
C            1.15854  -0.22349   0.63789
C            1.96877   0.64727  -0.31443
H           -2.25609  -0.03157   1.04388
H           -2.62564   1.10794  -0.10204
H           -1.27256   1.28586   0.83200
H           -0.63965   0.52763  -1.39753
H           -1.75034  -0.80654  -1.23369
H            0.49110  -1.66007  -0.82072
H           -0.40813  -1.71481   0.67075
H            1.83533  -0.91656   1.15504
H            0.72944   0.39481   1.43426
H            1.35097   1.41155  -0.78622
H            2.41421   0.05055  -1.11151
H            2.78111   1.16319   0.20108
