 xtb: 6.5.1 (fef0646)
          02032320313D

 17 16  0     0  0            999 V2000
   -1.8552    0.5990    0.3428 N   0  0  0  0  0  0  0  0  0  0  0  0
   -1.0625   -0.1681   -0.6650 C   0  0  0  0  0  0  0  0  0  0  0  0
    0.0442   -1.0223   -0.0486 C   0  0  0  0  0  0  0  0  0  0  0  0
    1.1585   -0.2235    0.6379 C   0  0  0  0  0  0  0  0  0  0  0  0
    1.9688    0.6473   -0.3144 C   0  0  0  0  0  0  0  0  0  0  0  0
   -2.2561   -0.0316    1.0439 H   0  0  0  0  0  0  0  0  0  0  0  0
   -2.6256    1.1080   -0.1020 H   0  0  0  0  0  0  0  0  0  0  0  0
   -1.2726    1.2859    0.8320 H   0  0  0  0  0  0  0  0  0  0  0  0
   -0.6397    0.5276   -1.3975 H   0  0  0  0  0  0  0  0  0  0  0  0
   -1.7503   -0.8065   -1.2337 H   0  0  0  0  0  0  0  0  0  0  0  0
    0.4911   -1.6601   -0.8207 H   0  0  0  0  0  0  0  0  0  0  0  0
   -0.4081   -1.7148    0.6708 H   0  0  0  0  0  0  0  0  0  0  0  0
    1.8353   -0.9166    1.1550 H   0  0  0  0  0  0  0  0  0  0  0  0
    0.7294    0.3948    1.4343 H   0  0  0  0  0  0  0  0  0  0  0  0
    1.3510    1.4115   -0.7862 H   0  0  0  0  0  0  0  0  0  0  0  0
    2.4142    0.0505   -1.1115 H   0  0  0  0  0  0  0  0  0  0  0  0
    2.7811    1.1632    0.2011 H   0  0  0  0  0  0  0  0  0  0  0  0
  1  2  1  0  0  0  0
  2  3  1  0  0  0  0
  3  4  1  0  0  0  0
  4  5  1  0  0  0  0
  1  6  1  0  0  0  0
  1  7  1  0  0  0  0
  1  8  1  0  0  0  0
  2  9  1  0  0  0  0
  2 10  1  0  0  0  0
  3 11  1  0  0  0  0
  3 12  1  0  0  0  0
  4 13  1  0  0  0  0
  4 14  1  0  0  0  0
  5 15  1  0  0  0  0
  5 16  1  0  0  0  0
  5 17  1  0  0  0  0
M  CHG  1   1   1
M  END
