  16

 N         -1.3756608659       -1.4215647706       -0.0884369859
 C         -0.2879174405       -1.2703237902        0.9132025836
 C          0.7542522049       -0.3189779732        0.4557544417
 C          0.7036121762        1.0301210580        0.5932555293
 C          1.8377213812        1.7008757694        0.0457545251
 C          2.7388379406        0.8574157273       -0.5056038185
 S          2.2146907091       -0.7825359668       -0.3654374203
 Cl        -2.8138860322        1.6811467763       -0.7076277374
 H         -2.1127569908       -2.0740434998        0.2262086966
 H         -1.0006634219       -1.7725160752       -0.9828062679
 H         -1.8226726637       -0.5059809778       -0.2834899581
 H          0.1744233399       -2.2441853127        1.1131346877
 H         -0.7006623450       -0.9295859000        1.8701503936
 H         -0.1213524846        1.5421956613        1.0664147777
 H          1.9589412167        2.7746559075        0.0690701201
 H          3.6612191465        1.1493999647       -0.9734436135
          16
        -25.42483501
 N         -1.0111160772        1.9627280130        0.5825927689
 C          0.0627822963        1.8757737591       -0.4399044708
 C          0.9651082879        0.7184491210       -0.2116892413
 C          2.3202732927        0.7890073991       -0.1610707317
 C          2.9487829940       -0.4694135486        0.0672948681
 C          2.0665886629       -1.4851011115        0.1883394422
 S          0.4400455832       -0.9248096722        0.0292618586
 Cl        -2.9922813768       -0.6824931971       -0.0920743352
 H         -1.6001598383        2.8038363441        0.4653084121
 H         -0.6126483347        1.9796620507        1.5337337106
 H         -1.6285396145        1.1327999246        0.5181156155
 H          0.6498553530        2.8019717350       -0.4393686006
 H         -0.3780169687        1.7997015356       -1.4409254033
 H          2.8668180424        1.7126756038       -0.2831119602
 H          4.0202398162       -0.5943907637        0.1343268112
 H          2.3233529388       -2.5141375245        0.3616714081
          16
        -25.42493619
 N         -1.0121670566        1.9588804506        0.5822851106
 C          0.0709400514        1.8821604956       -0.4312423050
 C          0.9686172369        0.7200776257       -0.2087502044
 C          2.3244676409        0.7841534044       -0.1688101003
 C          2.9484238687       -0.4767610993        0.0586893134
 C          2.0623484104       -1.4879040989        0.1892736650
 S          0.4376916743       -0.9209591918        0.0366203388
 Cl        -2.9940960447       -0.6816123174       -0.0971691837
 H         -1.6020890524        2.7996173774        0.4660281132
 H         -0.6212742682        1.9700893343        1.5367864582
 H         -1.6269098754        1.1278656696        0.5070776533
 H          0.6597220550        2.8072592189       -0.4126180770
 H         -0.3596477576        1.8202742869       -1.4378771506
 H          2.8748293358        1.7042326063       -0.3004929659
 H          4.0196715227       -0.6066668951        0.1197204029
 H          2.3157070075       -2.5172569232        0.3659464203
