28
 xtb: 6.5.1 (fef0646)
N           -1.59037558421588       -1.23790876201530       -1.04991879231128
C           -1.15611366316777       -2.01179724946108        0.15781185842362
C           -0.54678973284396       -1.14610243777269        1.26335201084476
C            0.77558376656635       -0.42279618949820        0.92340109260742
C            0.59178872510658        0.84430446089972        0.05528100461879
C            1.92639994325046        1.58865355669567       -0.12487859610067
C            2.99298154808242        0.66395699892939       -0.73973563579075
C            3.17395915981105       -0.61397425400352        0.09987692871029
C            1.83429788177406       -1.34913054729474        0.28397989855017
Cl          -2.98040420764378        1.49178013427978       -0.24838788386814
H           -2.13651242649820       -1.89722401159282       -1.68006151715547
H           -0.69975864017822       -1.07316686464027       -1.64431424973824
H           -2.03051744654006       -0.45129236316246       -0.84954433739681
H           -0.42501307629175       -2.85170506118600       -0.07930843647157
H           -2.01485944218053       -2.56919282777933        0.56353154065436
H           -0.39406672623815       -1.75562124044734        2.16202999673675
H           -1.29807700907189       -0.40336073360014        1.54085110299580
H            1.20414072608022       -0.06804012272389        1.87098011419198
H           -0.18062007802158        1.49171549611787        0.48469209717731
H            0.20399158478391        0.55536613478846       -0.93450481406248
H            2.26704191412764        1.94960320373919        0.84539062524218
H            1.78349384847977        2.48580930941043       -0.74465311317266
H            3.94536478244498        1.19527296922909       -0.85244200367673
H            2.69141116801607        0.38484482668499       -1.75820935177573
H            3.57843292109926       -0.34502168751337        1.08560882794051
H            3.92423137847478       -1.27553609962544       -0.35105016877552
H            1.95824262213435       -2.26001759007331        0.88790817043150
H            1.47459491313575       -1.69186400442831       -0.69113006973095
