  47

 N          4.7900500000        1.4552200000        4.1845400000
 C          4.3750100000        0.1848200000        3.5264900000
 C          3.8425200000        0.4521900000        2.1157600000
 C          4.8582700000        1.1105400000        1.2281100000
 C          4.7734500000        2.3373200000        0.6068500000
 C          5.9525600000        2.6501100000       -0.1304400000
 C          6.9151700000        1.6585400000       -0.0622200000
 C          8.2444400000        1.6598600000       -0.6382600000
 C          9.1836400000        0.6525200000       -0.5985200000
 C         10.4439600000        1.0046500000       -1.1908800000
 C         11.6076000000        0.0649900000       -1.1885800000
 C         10.4140500000        2.2893000000       -1.7229500000
 C         11.4602200000        3.0081400000       -2.4368200000
 C         11.7513700000        4.3601200000       -2.4660600000
 C         11.0968500000        5.3362500000       -1.6434900000
 N         10.5795000000        6.1115200000       -0.9644700000
 C         12.7787300000        4.6954800000       -3.4017300000
 C         13.1659700000        6.0478300000       -3.6845000000
 N         13.4489600000        7.1508600000       -3.8958900000
 C         13.3522300000        3.5836300000       -3.9896400000
 C         14.4724800000        3.4973400000       -4.9083100000
 C         14.6934700000        2.6042400000       -5.9540800000
 C         13.7866700000        1.5126000000       -6.4361200000
 C         15.9736600000        2.8329700000       -6.5689500000
 C         16.6614300000        3.8805300000       -6.0107900000
 S         15.8077000000        4.5776200000       -4.7250100000
 S         12.5747000000        2.1705400000       -3.4268000000
 S          8.8655700000        3.0027500000       -1.4889300000
 S          6.3348900000        0.3320600000        0.8643500000
 H          5.1512800000        1.2856400000        5.1322400000
 H          4.0127100000        2.1238500000        4.2608000000
 H          5.5420000000        1.9182400000        3.6516200000
 H          3.6033600000       -0.2606800000        4.1607400000
 H          5.2539600000       -0.4671500000        3.5279100000
 H          2.9572200000        1.0975000000        2.1857900000
 H          3.5076900000       -0.4884000000        1.6622400000
 H          3.9123800000        2.9932100000        0.6659300000
 H          6.0816200000        3.5744200000       -0.6829000000
 H          9.0045700000       -0.3138300000       -0.1414900000
 H         11.3720000000       -0.8589000000       -0.6528100000
 H         12.4695200000        0.5294700000       -0.6995800000
 H         11.8753000000       -0.2243100000       -2.2089000000
 H         12.8038200000        1.5171800000       -5.9669500000
 H         14.2472000000        0.5383000000       -6.2447400000
 H         13.6044400000        1.6153000000       -7.5095800000
 H         16.3681300000        2.2475500000       -7.3912400000
 H         17.6342300000        4.2644500000       -6.2890000000
