  40

 N         -6.9105426022       -0.4993051165       -1.5042387490
 C         -7.4364100337       -0.3511150847       -0.1184220873
 C         -6.6863360211       -1.2365777705        0.8723679948
 C         -5.2490368123       -0.8675243849        0.9806259666
 C         -4.7488648420        0.1409904999        1.7396974646
 C         -3.3420577747        0.2942623614        1.6353091848
 C         -2.7502988638       -0.5997023480        0.7891221159
 C         -1.3444295863       -0.6661174459        0.4883802855
 C         -0.7539268486       -1.5641962785       -0.3595514423
 C          0.6425378072       -1.4037889208       -0.4843298503
 C          1.1543155359       -0.3781387173        0.2655009234
 C          2.5361050958        0.0106280609        0.3175875198
 C          3.0485878479        1.0317198202        1.0733051823
 C          4.4417197632        1.2073093659        0.9318706863
 C          5.0288099189        0.3248309846        0.0653878940
 C          6.4286396048        0.2840416959       -0.2678380668
 C          7.0135846646       -0.5946457678       -1.1360377447
 C          8.4134113833       -0.4085425484       -1.2824110335
 C          8.9013650080        0.6052722660       -0.5312791023
 S          7.6437322185        1.3607804311        0.3807158287
 S          3.8202884535       -0.7532782892       -0.5852032533
 S         -0.1322450314        0.3990014865        1.1536195905
 S         -3.9632487616       -1.6585905247        0.1144815717
 Cl        -8.4752984649        1.8068175237       -3.6413237136
 H         -7.3484091593        0.1709004665       -2.1612475780
 H         -7.0766275216       -1.4493550364       -1.8620607018
 H         -5.8938955287       -0.3437015549       -1.5150017391
 H         -8.5092783470       -0.5776683518       -0.1064839581
 H         -7.3495236193        0.6962057637        0.1931686202
 H         -6.7601812661       -2.2832719887        0.5590872857
 H         -7.1474143279       -1.1872761070        1.8657959377
 H         -5.3692707820        0.7715251239        2.3572766008
 H         -2.7842775498        1.0471134218        2.1693161586
 H         -1.3144074851       -2.3209363002       -0.8851986995
 H          1.2578194416       -2.0247544880       -1.1157538736
 H          2.4343401414        1.6447407797        1.7135350982
 H          5.0000332503        1.9687707490        1.4528201156
 H          6.4551273109       -1.3544182582       -1.6596150752
 H          9.0247813137       -1.0169745316       -1.9321121117
 H          9.9287389411        0.9139585486       -0.4939274015
          40
        -67.16476364
 N         -7.3711102123       -2.1983809384        0.0736633960
 C         -7.7796374063       -1.1274901391       -0.8807957671
 C         -7.3338143377        0.2659164527       -0.4342446644
 C         -5.8600916345        0.4874694239       -0.5092301778
 C         -5.2540498211        1.6697443116       -0.7973660296
 C         -3.8338795489        1.6148847027       -0.7805301203
 C         -3.3285554917        0.3826499508       -0.4750777107
 C         -1.9338909504        0.0434335800       -0.3742643609
 C         -1.4381802851       -1.1948949251       -0.0666928665
 C         -0.0292409139       -1.2531562421       -0.0180796865
 C          0.5869814700       -0.0601846956       -0.2884623022
 C          2.0057970725        0.1630362661       -0.2983937677
 C          2.6238864901        1.3546617817       -0.5708900118
 C          4.0325119809        1.2978247018       -0.5062211360
 C          4.5259947207        0.0623169608       -0.1831836055
 C          5.9189133812       -0.2738452963       -0.0456128653
 C          6.4104799945       -1.5082874426        0.2744911960
 C          7.8273703087       -1.5592627948        0.3457559881
 C          8.4207955096       -0.3725281469        0.0822992613
 S          7.2446277461        0.8447974313       -0.2632792652
 S          3.2067087809       -1.0576584043        0.0419009801
 S         -0.6158489595        1.1611914943       -0.6191547092
 S         -4.6496617218       -0.7251931703       -0.2155697782
 Cl        -2.7034039210        0.9011460330        2.9236083828
 H         -7.6201249494       -3.1408896813       -0.2627124202
 H         -7.8062552290       -2.0585011726        0.9940391692
 H         -6.3545741829       -2.1619203555        0.2057480164
 H         -8.8687491761       -1.1574143566       -1.0069236918
 H         -7.3614249101       -1.3394910207       -1.8715351679
 H         -7.6632998642        0.4410579257        0.5951825523
 H         -7.8337961112        1.0319982456       -1.0387729006
 H         -5.8063192191        2.5718329397       -1.0106606258
 H         -3.2039246205        2.4670503507       -0.9814414205
 H         -2.0752740103       -2.0432857260        0.1266652670
 H          0.5209310990       -2.1509374539        0.2145775311
 H          2.0752409503        2.2517264499       -0.8100501989
 H          4.6704789444        2.1474687373       -0.6905989071
 H          5.7736973882       -2.3598620186        0.4546871674
 H          8.3738231899       -2.4586266153        0.5875657415
 H          9.4790748715       -0.1932254556        0.0840312689
          40
        -67.16622169
 N         -6.7713513495       -2.8321251409       -0.2573686633
 C         -7.5325076437       -1.6533156763       -0.7632711978
 C         -7.5079880274       -0.4713392339        0.2073831523
 C         -6.1769629121        0.1931410936        0.3226564002
 C         -5.9722731338        1.5172587201        0.5505560799
 C         -4.6029678051        1.8896390386        0.6339943126
 C         -3.7312613847        0.8482289420        0.4711538976
 C         -2.2932820339        0.9197625405        0.5038675950
 C         -1.5425928264        2.0450706420        0.7225924810
 C         -0.1497217181        1.8203783463        0.6941264186
 C          0.2005219926        0.5191521400        0.4506729309
 C          1.5433507348        0.0186268708        0.3555509834
 C          1.8933863519       -1.2808435378        0.1006357903
 C          3.2865100588       -1.4999906936        0.0507840118
 C          4.0353031843       -0.3745402012        0.2673899519
 C          5.4734403557       -0.3131651182        0.2705541815
 C          6.2203668288        0.8116424135        0.4821543083
 C          7.6210485391        0.5864913689        0.4303893907
 C          7.9485101824       -0.7021225261        0.1809849981
 S          6.5335877537       -1.6770863409        0.0018283266
 S          2.9821563108        0.9895562864        0.5424396291
 S         -1.2388134325       -0.4497280257        0.2625753023
 S         -4.6423869008       -0.6147554771        0.2085311829
 Cl         0.8472094299        1.1908174348       -2.8945938478
 H         -5.8059335327       -2.5469988675       -0.0471611250
 H         -6.7390675967       -3.5998861333       -0.9406975281
 H         -7.1831052224       -3.1914842353        0.6130496649
 H         -8.5661997994       -1.9565937636       -0.9692825301
 H         -7.1196643052       -1.3359124483       -1.7277260637
 H         -7.8195275468       -0.8094277883        1.2011614630
 H         -8.2484010644        0.2787697166       -0.0951078311
 H         -6.7823450455        2.2215050282        0.6610790373
 H         -4.2805849581        2.9037890115        0.8095907108
 H         -1.9769306692        3.0162806675        0.8986574699
 H          0.5810323165        2.5993894799        0.8426505968
 H          1.1629628939       -2.0594814377       -0.0513708488
 H          3.7298391059       -2.4643626567       -0.1398237027
 H          5.7783819620        1.7773449565        0.6697919082
 H          8.3502080683        1.3693034670        0.5769257028
 H          8.9477989379       -1.0859387683        0.1019287182
          40
        -67.16767847
 N         -6.2160438294       -3.6434882913        0.0834804931
 C         -7.0768575084       -2.6191765337       -0.5754334424
 C         -7.0921206841       -1.2860811958        0.1743769748
 C         -5.8041382391       -0.5352129457        0.1100557056
 C         -5.6807706303        0.8179702646        0.0825433133
 C         -4.3374412639        1.2792977927        0.0454740119
 C         -3.4037105416        0.2802998249        0.0467811332
 C         -1.9738283375        0.4503384385        0.0223896494
 C         -1.3058846803        1.6458974086       -0.0094580664
 C          0.0989480053        1.5195601282       -0.0222988444
 C          0.5422576378        0.2241601381       -0.0010906297
 C          1.9184785550       -0.1871616822       -0.0036146094
 C          2.3644203276       -1.4822566101        0.0029233620
 C          3.7703659064       -1.6047295019        0.0005701736
 C          4.4335998057       -0.4070957257       -0.0069607699
 C          5.8635286437       -0.2412838170       -0.0079505102
 C          6.5249168510        0.9548851319       -0.0143051167
 C          7.9387903977        0.8272704661       -0.0132734879
 C          8.3611170433       -0.4580065668       -0.0059592244
 S          7.0225781896       -1.5502494130       -0.0004377520
 S          3.2814384152        0.9037262532       -0.0140559219
 S         -0.8239361167       -0.8620818343        0.0319060519
 S         -4.2233226732       -1.2576256965        0.0843944757
 Cl        -3.1951328229        4.5756032770       -0.0520606442
 H         -5.2634002939       -3.2700698614        0.1859944481
 H         -6.1636137253       -4.5164147043       -0.4573135396
 H         -6.5625706940       -3.8666351518        1.0249791834
 H         -8.0952431296       -3.0155018816       -0.6693937119
 H         -6.7290426767       -2.4519106349       -1.6012752734
 H         -7.3435389382       -1.4623984235        1.2254132079
 H         -7.8907476498       -0.6445037261       -0.2166897675
 H         -6.5307478232        1.4825924462        0.0962216526
 H         -4.0756474480        2.3256559755        0.0230728226
 H         -1.8117494489        2.5985223823       -0.0202138791
 H          0.7712897375        2.3624662248       -0.0433011574
 H          1.6944663899       -2.3272189133        0.0093114937
 H          4.2841209250       -2.5527901307        0.0052169041
 H          6.0124714916        1.9039773182       -0.0185816050
 H          8.6077263459        1.6749993691       -0.0182855412
 H          9.3859736255       -0.7770588021       -0.0041867562
          40
        -67.16777685
 N         -6.2000388752       -3.6549493162        0.0447902473
 C         -7.0483647424       -2.6324224373       -0.6332346731
 C         -7.0869409004       -1.3011435973        0.1191970555
 C         -5.8021574845       -0.5432801910        0.0812431333
 C         -5.6838744160        0.8104389083        0.0578350035
 C         -4.3420083500        1.2773757982        0.0437592706
 C         -3.4046546150        0.2819248594        0.0581840622
 C         -1.9750996969        0.4556793997        0.0502096703
 C         -1.3089859503        1.6521463962        0.0137353416
 C          0.0961596757        1.5278155662        0.0089211238
 C          0.5411916696        0.2332154748        0.0424170356
 C          1.9173037654       -0.1783930102        0.0415586806
 C          2.3616396142       -1.4731222693        0.0918340303
 C          3.7671786176       -1.5981678284        0.0743943531
 C          4.4319417598       -0.4031222706        0.0092522631
 C          5.8619104175       -0.2413161056       -0.0253664966
 C          6.5255777196        0.9516679501       -0.0896948412
 C          7.9388466908        0.8197395384       -0.1127898942
 C          8.3585378129       -0.4653668868       -0.0658500784
 S          7.0179334077       -1.5524245394        0.0077827767
 S          3.2815481397        0.9089211282       -0.0269403646
 S         -0.8233531553       -0.8545199950        0.0840437380
 S         -4.2183895517       -1.2593580861        0.0841632866
 Cl        -3.2071019808        4.5766560803       -0.0467024137
 H         -5.2513857726       -3.2783779625        0.1702142463
 H         -6.1319344682       -4.5278040665       -0.4946157972
 H         -6.5678720346       -3.8795767130        0.9777884431
 H         -8.0626917113       -3.0319514388       -0.7534375204
 H         -6.6756807403       -2.4614408100       -1.6497373052
 H         -7.3580350251       -1.4813512878        1.1646910843
 H         -7.8813966158       -0.6632568058       -0.2862250765
 H         -6.5373632596        1.4706835173        0.0556031584
 H         -4.0832224544        2.3245823557        0.0258909997
 H         -1.8161378354        2.6038227959       -0.0116849949
 H          0.7672084128        2.3715379104       -0.0188770991
 H          1.6902755876       -2.3157069514        0.1398479093
 H          4.2798306139       -2.5462821092        0.1086567888
 H          6.0151063462        1.9011579871       -0.1204036341
 H          8.6097836076        1.6642782073       -0.1627891310
 H          9.3828332840       -0.7861918828       -0.0724247583
