 xtb: 6.5.1 (fef0646)
          01242317103D

 21 19  0     0  0            999 V2000
   -1.3345   -1.7984    0.5153 N   0  0  0  0  0  0  0  0  0  0  0  0
   -0.0932   -1.7279   -0.3100 C   0  0  0  0  0  0  0  0  0  0  0  0
    0.7603   -0.5133    0.0349 C   0  0  0  0  0  0  0  0  0  0  0  0
    2.0352   -0.4210   -0.8048 C   0  0  0  0  0  0  0  0  0  0  0  0
    2.8731    0.8275   -0.5121 C   0  0  0  0  0  0  0  0  0  0  0  0
    3.4537    0.8483    0.8947 C   0  0  0  0  0  0  0  0  0  0  0  0
   -3.0310    1.2293    0.0043 Cl  0  0  0  0  0  0  0  0  0  0  0  0
   -1.1065   -1.8714    1.5187 H   0  0  0  0  0  0  0  0  0  0  0  0
   -1.9245   -2.6038    0.2639 H   0  0  0  0  0  0  0  0  0  0  0  0
   -1.8963   -0.9423    0.3907 H   0  0  0  0  0  0  0  0  0  0  0  0
   -0.3565   -1.7031   -1.3742 H   0  0  0  0  0  0  0  0  0  0  0  0
    0.4945   -2.6442   -0.1780 H   0  0  0  0  0  0  0  0  0  0  0  0
    1.0131   -0.5394    1.1007 H   0  0  0  0  0  0  0  0  0  0  0  0
    0.1668    0.3994   -0.0939 H   0  0  0  0  0  0  0  0  0  0  0  0
    1.7638   -0.4497   -1.8680 H   0  0  0  0  0  0  0  0  0  0  0  0
    2.6445   -1.3181   -0.6418 H   0  0  0  0  0  0  0  0  0  0  0  0
    2.2576    1.7216   -0.6757 H   0  0  0  0  0  0  0  0  0  0  0  0
    3.6875    0.9051   -1.2457 H   0  0  0  0  0  0  0  0  0  0  0  0
    4.0862    1.7228    1.0637 H   0  0  0  0  0  0  0  0  0  0  0  0
    4.0634   -0.0373    1.0830 H   0  0  0  0  0  0  0  0  0  0  0  0
    2.6695    0.8669    1.6532 H   0  0  0  0  0  0  0  0  0  0  0  0
  1  2  1  0  0  0  0
  2  3  1  0  0  0  0
  3  4  1  0  0  0  0
  4  5  1  0  0  0  0
  5  6  1  0  0  0  0
  1  8  1  0  0  0  0
  1  9  1  0  0  0  0
  1 10  1  0  0  0  0
  2 11  1  0  0  0  0
  2 12  1  0  0  0  0
  3 13  1  0  0  0  0
  3 14  1  0  0  0  0
  4 15  1  0  0  0  0
  4 16  1  0  0  0  0
  5 17  1  0  0  0  0
  5 18  1  0  0  0  0
  6 19  1  0  0  0  0
  6 20  1  0  0  0  0
  6 21  1  0  0  0  0
M  END
