 xtb: 6.5.1 (fef0646)
          02032321323D

 43 46  0     0  0            999 V2000
    5.7102   -0.6751   -1.6471 N   0  0  0  0  0  0  0  0  0  0  0  0
    4.6344    0.3493   -1.5364 C   0  0  0  0  0  0  0  0  0  0  0  0
    4.4270    0.8062   -0.0963 C   0  0  0  0  0  0  0  0  0  0  0  0
    3.2434    1.5850    0.0771 O   0  0  0  0  0  0  0  0  0  0  0  0
    2.0555    0.8782    0.0752 C   0  0  0  0  0  0  0  0  0  0  0  0
    1.9463   -0.5066    0.0094 C   0  0  0  0  0  0  0  0  0  0  0  0
    0.7196   -1.1359    0.0114 C   0  0  0  0  0  0  0  0  0  0  0  0
   -0.4775   -0.4295    0.0800 C   0  0  0  0  0  0  0  0  0  0  0  0
   -0.4188    0.9912    0.1533 C   0  0  0  0  0  0  0  0  0  0  0  0
   -1.6067    1.7755    0.2296 C   0  0  0  0  0  0  0  0  0  0  0  0
   -1.4859    3.1554    0.3029 C   0  0  0  0  0  0  0  0  0  0  0  0
   -0.2457    3.7785    0.3014 C   0  0  0  0  0  0  0  0  0  0  0  0
    0.8997    3.0357    0.2268 C   0  0  0  0  0  0  0  0  0  0  0  0
    0.8427    1.6391    0.1522 C   0  0  0  0  0  0  0  0  0  0  0  0
   -1.7728   -1.0969    0.0818 C   0  0  0  0  0  0  0  0  0  0  0  0
   -1.8926   -2.4778    0.0139 C   0  0  0  0  0  0  0  0  0  0  0  0
   -3.1334   -3.1049    0.0160 C   0  0  0  0  0  0  0  0  0  0  0  0
   -4.2811   -2.3698    0.0853 C   0  0  0  0  0  0  0  0  0  0  0  0
   -4.2258   -0.9634    0.1563 C   0  0  0  0  0  0  0  0  0  0  0  0
   -5.4020   -0.1903    0.2284 C   0  0  0  0  0  0  0  0  0  0  0  0
   -5.3319    1.1704    0.2973 C   0  0  0  0  0  0  0  0  0  0  0  0
   -4.0991    1.8144    0.2976 C   0  0  0  0  0  0  0  0  0  0  0  0
   -2.9080    1.1085    0.2291 C   0  0  0  0  0  0  0  0  0  0  0  0
   -2.9634   -0.3139    0.1556 C   0  0  0  0  0  0  0  0  0  0  0  0
    4.2889   -3.1975    0.3013 Cl  0  0  0  0  0  0  0  0  0  0  0  0
    6.6045   -0.3137   -1.2833 H   0  0  0  0  0  0  0  0  0  0  0  0
    5.8582   -0.9783   -2.6186 H   0  0  0  0  0  0  0  0  0  0  0  0
    5.4583   -1.5050   -1.0904 H   0  0  0  0  0  0  0  0  0  0  0  0
    3.6978   -0.0585   -1.9309 H   0  0  0  0  0  0  0  0  0  0  0  0
    4.8600    1.2142   -2.1701 H   0  0  0  0  0  0  0  0  0  0  0  0
    5.2683    1.4291    0.2275 H   0  0  0  0  0  0  0  0  0  0  0  0
    4.4031   -0.0373    0.6005 H   0  0  0  0  0  0  0  0  0  0  0  0
    2.8340   -1.1107   -0.0389 H   0  0  0  0  0  0  0  0  0  0  0  0
    0.7000   -2.2091   -0.0415 H   0  0  0  0  0  0  0  0  0  0  0  0
   -2.3662    3.7689    0.3634 H   0  0  0  0  0  0  0  0  0  0  0  0
   -0.1861    4.8532    0.3595 H   0  0  0  0  0  0  0  0  0  0  0  0
    1.8649    3.5126    0.2252 H   0  0  0  0  0  0  0  0  0  0  0  0
   -1.0117   -3.0906   -0.0421 H   0  0  0  0  0  0  0  0  0  0  0  0
   -3.1877   -4.1803   -0.0378 H   0  0  0  0  0  0  0  0  0  0  0  0
   -5.2413   -2.8572    0.0866 H   0  0  0  0  0  0  0  0  0  0  0  0
   -6.3570   -0.6878    0.2284 H   0  0  0  0  0  0  0  0  0  0  0  0
   -6.2379    1.7523    0.3521 H   0  0  0  0  0  0  0  0  0  0  0  0
   -4.0842    2.8875    0.3527 H   0  0  0  0  0  0  0  0  0  0  0  0
  1  2  1  0  0  0  0
  2  3  1  0  0  0  0
  3  4  1  0  0  0  0
  4  5  1  0  0  0  0
  5  6  4  0  0  0  0
  6  7  4  0  0  0  0
  7  8  4  0  0  0  0
  8  9  4  0  0  0  0
  9 10  4  0  0  0  0
 10 11  4  0  0  0  0
 11 12  4  0  0  0  0
 12 13  2  0  0  0  0
  5 14  4  0  0  0  0
  9 14  4  0  0  0  0
 13 14  4  0  0  0  0
  8 15  1  0  0  0  0
 15 16  4  0  0  0  0
 16 17  4  0  0  0  0
 17 18  2  0  0  0  0
 18 19  4  0  0  0  0
 19 20  4  0  0  0  0
 20 21  2  0  0  0  0
 21 22  4  0  0  0  0
 10 23  1  0  0  0  0
 22 23  4  0  0  0  0
 15 24  4  0  0  0  0
 19 24  4  0  0  0  0
 23 24  4  0  0  0  0
  1 26  1  0  0  0  0
  1 27  1  0  0  0  0
  1 28  1  0  0  0  0
  2 29  1  0  0  0  0
  2 30  1  0  0  0  0
  3 31  1  0  0  0  0
  3 32  1  0  0  0  0
  6 33  1  0  0  0  0
  7 34  1  0  0  0  0
 11 35  1  0  0  0  0
 12 36  1  0  0  0  0
 13 37  1  0  0  0  0
 16 38  1  0  0  0  0
 17 39  1  0  0  0  0
 18 40  1  0  0  0  0
 20 41  1  0  0  0  0
 21 42  1  0  0  0  0
 22 43  1  0  0  0  0
M  END
