12

N          1.02085        0.05814       -0.02668
C          2.51592        0.02384       -0.07590
C          3.04120       -0.47415       -1.42172
C          2.51970       -1.88368       -1.64898
N          2.08707       -3.05301       -1.83752
H          0.69349        0.40861        0.88577
H          0.59549       -0.87777       -0.13621
H          0.60636        0.67084       -0.74410
H          2.83258       -0.62335        0.74838
H          2.85346        1.04568        0.12010
H          4.13576       -0.48467       -1.42135
H          2.70138        0.17460       -2.23595
