 xtb: 6.5.1 (fef0646)
          01242315233D

 12 11  0     0  0            999 V2000
    1.0151   -0.0002    0.0579 N   0  0  0  0  0  0  0  0  0  0  0  0
    2.4939   -0.0924    0.0080 C   0  0  0  0  0  0  0  0  0  0  0  0
    2.9820   -0.3647   -1.4172 C   0  0  0  0  0  0  0  0  0  0  0  0
    2.5959   -1.6724   -1.8828 C   0  0  0  0  0  0  0  0  0  0  0  0
    2.2641   -2.7104   -2.2335 N   0  0  0  0  0  0  0  0  0  0  0  0
    0.7001    0.1828    1.0187 H   0  0  0  0  0  0  0  0  0  0  0  0
    0.5861   -0.8783   -0.2603 H   0  0  0  0  0  0  0  0  0  0  0  0
    0.6760    0.7603   -0.5452 H   0  0  0  0  0  0  0  0  0  0  0  0
    2.8264   -0.8923    0.6708 H   0  0  0  0  0  0  0  0  0  0  0  0
    2.9220    0.8496    0.3508 H   0  0  0  0  0  0  0  0  0  0  0  0
    4.0726   -0.3146   -1.4452 H   0  0  0  0  0  0  0  0  0  0  0  0
    2.5967    0.3779   -2.1201 H   0  0  0  0  0  0  0  0  0  0  0  0
  1  2  1  0  0  0  0
  2  3  1  0  0  0  0
  3  4  1  0  0  0  0
  4  5  3  0  0  0  0
  1  6  1  0  0  0  0
  1  7  1  0  0  0  0
  1  8  1  0  0  0  0
  2  9  1  0  0  0  0
  2 10  1  0  0  0  0
  3 11  1  0  0  0  0
  3 12  1  0  0  0  0
M  CHG  1   1   1
M  END
