13
 xtb: 6.5.1 (fef0646)
N           -1.66493560576606       -0.81376848366590        0.16942400990780
C           -1.16666903011472        0.47330965659164       -0.39936890635674
C            0.11106022122532        0.95866604118530        0.29145372839343
C            1.22430621058233        0.11914342982733        0.03885201287823
C            2.18472002516783       -0.59676039446100       -0.13850176102748
H           -2.00449487084264       -0.69059214059500        1.13052841736965
H           -0.90006296031674       -1.51677566560840        0.17236585905031
H           -2.44647947223138       -1.20006007065664       -0.40607356863633
H           -1.96705974322710        1.22441532652823       -0.31701481338752
H           -0.98776014969556        0.34399896596444       -1.47656195845291
H           -0.05185839960120        1.05280905100160        1.35366294706547
H            0.36531826900027        1.96937461930931       -0.07841251689750
H            3.04289507983862       -1.21664228579887       -0.28272081162496
