 xtb: 6.5.1 (fef0646)
          01242310053D

 36 36  0     0  0            999 V2000
   -4.9980    0.1665    1.6478 N   0  0  0  0  0  0  0  0  0  0  0  0
   -5.0458    1.5335    1.0579 C   0  0  0  0  0  0  0  0  0  0  0  0
   -4.3653    1.5893   -0.3073 C   0  0  0  0  0  0  0  0  0  0  0  0
   -2.9459    1.1054   -0.2674 C   0  0  0  0  0  0  0  0  0  0  0  0
   -1.9118    1.9632    0.0779 C   0  0  0  0  0  0  0  0  0  0  0  0
   -0.6115    1.5093    0.1507 C   0  0  0  0  0  0  0  0  0  0  0  0
   -0.3028    0.1749   -0.1154 C   0  0  0  0  0  0  0  0  0  0  0  0
    1.0600   -0.3415   -0.0458 C   0  0  0  0  0  0  0  0  0  0  0  0
    2.1673    0.4099    0.0275 C   0  0  0  0  0  0  0  0  0  0  0  0
    3.5299   -0.1057    0.0982 C   0  0  0  0  0  0  0  0  0  0  0  0
    4.6034    0.7643   -0.0895 C   0  0  0  0  0  0  0  0  0  0  0  0
    5.9101    0.3210   -0.0313 C   0  0  0  0  0  0  0  0  0  0  0  0
    6.9364    1.1868   -0.2233 F   0  0  0  0  0  0  0  0  0  0  0  0
    6.1600   -1.0161    0.2236 C   0  0  0  0  0  0  0  0  0  0  0  0
    5.1142   -1.8950    0.4188 C   0  0  0  0  0  0  0  0  0  0  0  0
    3.8108   -1.4481    0.3582 C   0  0  0  0  0  0  0  0  0  0  0  0
   -1.3501   -0.6848   -0.4458 C   0  0  0  0  0  0  0  0  0  0  0  0
   -2.6475   -0.2260   -0.5192 C   0  0  0  0  0  0  0  0  0  0  0  0
   -5.6859   -2.0861   -0.9224 Cl  0  0  0  0  0  0  0  0  0  0  0  0
   -5.5597    0.0872    2.5119 H   0  0  0  0  0  0  0  0  0  0  0  0
   -4.0246   -0.1009    1.8787 H   0  0  0  0  0  0  0  0  0  0  0  0
   -5.3464   -0.5317    0.9713 H   0  0  0  0  0  0  0  0  0  0  0  0
   -4.5628    2.2393    1.7437 H   0  0  0  0  0  0  0  0  0  0  0  0
   -6.0891    1.8641    0.9763 H   0  0  0  0  0  0  0  0  0  0  0  0
   -4.3900    2.6089   -0.7104 H   0  0  0  0  0  0  0  0  0  0  0  0
   -4.9276    0.9787   -1.0229 H   0  0  0  0  0  0  0  0  0  0  0  0
   -2.1374    2.9946    0.2946 H   0  0  0  0  0  0  0  0  0  0  0  0
    0.1717    2.1919    0.4328 H   0  0  0  0  0  0  0  0  0  0  0  0
    1.1645   -1.4118   -0.0831 H   0  0  0  0  0  0  0  0  0  0  0  0
    2.0663    1.4810    0.0081 H   0  0  0  0  0  0  0  0  0  0  0  0
    4.4230    1.8054   -0.2907 H   0  0  0  0  0  0  0  0  0  0  0  0
    7.1817   -1.3511    0.2673 H   0  0  0  0  0  0  0  0  0  0  0  0
    5.3182   -2.9347    0.6216 H   0  0  0  0  0  0  0  0  0  0  0  0
    3.0039   -2.1402    0.5278 H   0  0  0  0  0  0  0  0  0  0  0  0
   -1.1335   -1.7212   -0.6472 H   0  0  0  0  0  0  0  0  0  0  0  0
   -3.4492   -0.9045   -0.7634 H   0  0  0  0  0  0  0  0  0  0  0  0
  1  2  1  0  0  0  0
  2  3  1  0  0  0  0
  3  4  1  0  0  0  0
  4  5  4  0  0  0  0
  5  6  4  0  0  0  0
  6  7  4  0  0  0  0
  7  8  1  0  0  0  0
  8  9  2  0  0  0  0
  9 10  1  0  0  0  0
 10 11  4  0  0  0  0
 11 12  4  0  0  0  0
 12 13  1  0  0  0  0
 12 14  4  0  0  0  0
 14 15  4  0  0  0  0
 10 16  4  0  0  0  0
 15 16  4  0  0  0  0
  7 17  4  0  0  0  0
  4 18  4  0  0  0  0
 17 18  4  0  0  0  0
  1 20  1  0  0  0  0
  1 21  1  0  0  0  0
  1 22  1  0  0  0  0
  2 23  1  0  0  0  0
  2 24  1  0  0  0  0
  3 25  1  0  0  0  0
  3 26  1  0  0  0  0
  5 27  1  0  0  0  0
  6 28  1  0  0  0  0
  8 29  1  0  0  0  0
  9 30  1  0  0  0  0
 11 31  1  0  0  0  0
 14 32  1  0  0  0  0
 15 33  1  0  0  0  0
 16 34  1  0  0  0  0
 17 35  1  0  0  0  0
 18 36  1  0  0  0  0
M  END
