  17

 N         -3.3480266999       -0.3478887898       -0.0003009962
 C         -2.1764696164        0.5781932465        0.0003224342
 C         -0.8393718434       -0.1565600562        0.0002788008
 C          0.3963578609        0.7510101489       -0.0004460363
 C          1.6572307777       -0.0748330191       -0.0002831002
 O          2.8566032442        0.5450993326        0.0000598288
 O          1.5220854509       -1.2774267469       -0.0005099819
 H         -4.2407225210        0.1685519396       -0.0002632860
 H         -3.3439939969       -0.9572048085        0.8308770560
 H         -3.3436756808       -0.9565269203       -0.8319918382
 H         -2.2409486739        1.2372885411        0.8759799073
 H         -2.2406285225        1.2379303817       -0.8748651032
 H         -0.7810583845       -0.8297024899       -0.8650554587
 H         -0.7806058966       -0.8290270741        0.8661319672
 H          0.3883331974        1.4035921542        0.8785967494
 H          0.3879955713        1.4026385474       -0.8802010092
 H          2.8234632179        1.5224433015        0.0001378220
          17
        -24.30471931
 N         -1.9278634402        1.0756125531       -0.2376970417
 C         -2.0602994161       -0.3592875343        0.1468244461
 C         -0.8986552724       -1.2367208988       -0.3415908326
 C          0.4141080527       -1.1009562516        0.4557068407
 C          1.2230017712        0.1242934193        0.1297301464
 O          2.4469007896       -0.0764346733       -0.3864687270
 O          0.7704816576        1.2237922040        0.3288726309
 H         -2.0613306032        1.2166794591       -1.2491155570
 H         -0.9622974334        1.3649099855       -0.0048017181
 H         -2.5891176661        1.6874787580        0.2631191559
 H         -3.0183521045       -0.7321218451       -0.2428549826
 H         -2.1385412067       -0.4341805532        1.2397231212
 H         -0.6991546029       -1.0197784394       -1.3980290772
 H         -1.2178292166       -2.2884479893       -0.3185299978
 H          1.0624921052       -1.9666890848        0.2681729825
 H          0.2081659620       -1.1088903850        1.5312340575
 H          2.8868396456        0.7783514784       -0.5269479968
          17
        -24.30493885
 N         -1.9357288141        1.0738564329        0.2277309270
 C         -2.0618931090       -0.3639173526       -0.1492932436
 C         -0.8980963391       -1.2340486275        0.3473311178
 C          0.4148694770       -1.0999079651       -0.4505098817
 C          1.2247709020        0.1252059148       -0.1265464614
 O          2.4564386328       -0.0759426662        0.3705510881
 O          0.7676336951        1.2252964512       -0.3112883841
 H         -2.0804556659        1.2215137383        1.2365881062
 H         -2.5919788138        1.6816245211       -0.2848972972
 H         -0.9680137614        1.3625986700        0.0035181653
 H         -2.1366821905       -0.4455165645       -1.2418179566
 H         -3.0197899224       -0.7381386629        0.2394583735
 H         -1.2141176343       -2.2869768291        0.3323607108
 H         -0.7001828838       -1.0084533291        1.4022248725
 H          0.2085260561       -1.1096877315       -1.5259385763
 H          1.0630161329       -1.9658978924       -0.2625665385
 H          2.8958376719        0.7789230323        0.5122858854
