18
 xtb: 6.5.1 (fef0646)
N           -1.52705667341966        2.11152217350997       -0.36076785348015
C           -0.66627843049404        2.12376489708711        0.85947818139390
C            0.24697961747365        0.90505704444585        0.96762536186889
C            1.19312745416163        0.75482805816121       -0.21468857786350
C            2.13880491571677       -0.40039508512993       -0.03161198929424
O            1.92581631677824       -1.47432123161881       -0.82275980576868
O            3.01864266760668       -0.33331238500222        0.79853345263482
Cl          -2.60490883505784       -1.58304353441040       -0.42574009708245
H           -2.02424557250032        1.08281807588313       -0.39126054786178
H           -1.02716602845555        2.11010104992973       -1.22570389498332
H           -2.30396518122540        2.72420013054315       -0.35596580526638
H           -1.31707279564893        2.17174938312427        1.74250808350521
H           -0.11746549996637        3.02778115850786        0.80343794056289
H           -0.32386653126408       -0.01587086783238        1.09238427369996
H            0.85310140797616        0.99142837157028        1.88943825552023
H            1.77271633529082        1.66622311289942       -0.36685439445866
H            0.62210931507609        0.58580182666677       -1.13199387770936
H            2.58427560356224       -2.15937659426843       -0.61097053544428
