 xtb: 6.5.1 (fef0646)
          01242317093D

 18 16  0     0  0            999 V2000
   -1.5841    1.9644   -0.3566 N   0  0  0  0  0  0  0  0  0  0  0  0
   -0.7012    2.0829    0.8391 C   0  0  0  0  0  0  0  0  0  0  0  0
    0.2599    0.9064    0.9755 C   0  0  0  0  0  0  0  0  0  0  0  0
    1.1942    0.7491   -0.2153 C   0  0  0  0  0  0  0  0  0  0  0  0
    2.1389   -0.4056   -0.0321 C   0  0  0  0  0  0  0  0  0  0  0  0
    1.9246   -1.4859   -0.8177 O   0  0  0  0  0  0  0  0  0  0  0  0
    3.0214   -0.3378    0.7951 O   0  0  0  0  0  0  0  0  0  0  0  0
   -2.5478   -1.4242   -0.4208 Cl  0  0  0  0  0  0  0  0  0  0  0  0
   -2.0073    1.0223   -0.3916 H   0  0  0  0  0  0  0  0  0  0  0  0
   -1.0547    2.0937   -1.2283 H   0  0  0  0  0  0  0  0  0  0  0  0
   -2.3438    2.6571   -0.3467 H   0  0  0  0  0  0  0  0  0  0  0  0
   -1.3224    2.1624    1.7398 H   0  0  0  0  0  0  0  0  0  0  0  0
   -0.1389    3.0219    0.7841 H   0  0  0  0  0  0  0  0  0  0  0  0
   -0.3111   -0.0195    1.1050 H   0  0  0  0  0  0  0  0  0  0  0  0
    0.8594    1.0052    1.8885 H   0  0  0  0  0  0  0  0  0  0  0  0
    1.7725    1.6642   -0.3703 H   0  0  0  0  0  0  0  0  0  0  0  0
    0.6195    0.5832   -1.1301 H   0  0  0  0  0  0  0  0  0  0  0  0
    2.5847   -2.1615   -0.6097 H   0  0  0  0  0  0  0  0  0  0  0  0
  1  2  1  0  0  0  0
  2  3  1  0  0  0  0
  3  4  1  0  0  0  0
  4  5  1  0  0  0  0
  5  6  1  0  0  0  0
  5  7  2  0  0  0  0
  1  9  1  0  0  0  0
  1 10  1  0  0  0  0
  1 11  1  0  0  0  0
  2 12  1  0  0  0  0
  2 13  1  0  0  0  0
  3 14  1  0  0  0  0
  3 15  1  0  0  0  0
  4 16  1  0  0  0  0
  4 17  1  0  0  0  0
  6 18  1  0  0  0  0
M  END
