 xtb: 6.5.1 (fef0646)
          01232313443D

 11 10  0     0  0            999 V2000
    0.9119   -0.0542   -0.0122 N   0  0  0  0  0  0  0  0  0  0  0  0
    2.4115   -0.0596   -0.0333 C   0  0  0  0  0  0  0  0  0  0  0  0
    2.9025   -0.4115   -1.4222 C   0  0  0  0  0  0  0  0  0  0  0  0
    0.5464    0.1817    0.9189 H   0  0  0  0  0  0  0  0  0  0  0  0
    0.5583   -0.9818   -0.2837 H   0  0  0  0  0  0  0  0  0  0  0  0
    0.5583    0.6321   -0.6927 H   0  0  0  0  0  0  0  0  0  0  0  0
    2.7614   -0.7893    0.6978 H   0  0  0  0  0  0  0  0  0  0  0  0
    2.7614    0.9303    0.2621 H   0  0  0  0  0  0  0  0  0  0  0  0
    2.5686   -1.4016   -1.7222 H   0  0  0  0  0  0  0  0  0  0  0  0
    3.9884   -0.4138   -1.4312 H   0  0  0  0  0  0  0  0  0  0  0  0
    2.5686    0.3162   -2.1575 H   0  0  0  0  0  0  0  0  0  0  0  0
  1  2  1  0  0  0  0
  2  3  1  0  0  0  0
  1  4  1  0  0  0  0
  1  5  1  0  0  0  0
  1  6  1  0  0  0  0
  2  7  1  0  0  0  0
  2  8  1  0  0  0  0
  3  9  1  0  0  0  0
  3 10  1  0  0  0  0
  3 11  1  0  0  0  0
M  CHG  1   1   1
M  END
