  35

 N          3.2203319627       -2.0538043102        1.9471026220
 C          2.5178995720       -2.4145375741        0.6804338911
 C          2.9769720138       -1.4358948078       -0.4041771762
 C          4.4810827969       -1.4756543152       -0.4820969426
 C          5.1315899316       -2.3909023822       -1.3031951188
 C          6.5075450281       -2.4806531763       -1.3112408602
 C          7.2926536171       -1.6665766744       -0.4852700737
 C          8.7397378207       -1.7176061415       -0.4627041601
 C          9.5162041157       -2.2846880707       -1.3986599661
 C         10.9656779948       -2.3169518982       -1.3960057701
 C         11.7229153619       -2.0195934141       -0.2606110759
 C         13.0993927702       -2.0644656750       -0.3358421077
 F         13.8115356401       -1.7814411158        0.7706705164
 C         13.7685614777       -2.3907624411       -1.5035455131
 C         13.0169908972       -2.6904220117       -2.6272975723
 C         11.6365594237       -2.6616055585       -2.5739639656
 C          6.6328397769       -0.7589523544        0.3488176418
 C          5.2524524765       -0.6632912044        0.3542069680
 H          3.2704151742       -2.8328810064        2.6095070602
 H          2.7649590059       -1.2562109180        2.4038930428
 H          4.1878610416       -1.7488101699        1.6407106588
 H          1.4390627613       -2.3803138650        0.8286208845
 H          2.8082802752       -3.4290482107        0.4047815169
 H          2.6292697837       -0.4281274367       -0.1718068513
 H          2.5365794985       -1.7322519069       -1.3545740984
 H          4.5504044094       -3.0286524972       -1.9524139518
 H          6.9813362453       -3.1987269399       -1.9606000378
 H          9.1973404992       -1.2049936590        0.3719648742
 H          9.0596335881       -2.7340879890       -2.2706143433
 H         11.2604595770       -1.7719793252        0.6810132748
 H         14.8461384285       -2.4104601745       -1.5185358612
 H         13.5149404746       -2.9507352252       -3.5482980555
 H         11.0634754278       -2.8973046584       -3.4584904209
 H          7.2122486494       -0.1057033254        0.9844004248
 H          4.7862224826        0.1223804333        0.9379205464
