28
1.379
N           -3.15714   1.58108   0.06285
C           -2.16323   1.50146  -1.04159
C           -0.73806   1.21442  -0.54953
C            0.28906   1.31427  -1.70405
C            1.71967   1.03925  -1.21408
C            1.82561  -0.33982  -0.53604
C            3.23742  -0.61215  -0.06120
O            4.23955  -0.22250  -0.88124
O            3.43085  -1.16917   0.99875
C            0.81122  -0.44098   0.61980
C           -0.62321  -0.16603   0.14041
Cl          -3.57025  -1.52255   1.62600
H           -3.26535   0.67111   0.54205
H           -4.09107   1.85873  -0.27863
H           -2.86633   2.27427   0.77527
H           -2.17058   2.44164  -1.60567
H           -2.46210   0.72641  -1.75552
H           -0.47711   1.97987   0.19796
H            0.22153   2.29597  -2.18917
H            0.01990   0.58665  -2.47788
H            2.02148   1.80680  -0.49284
H            2.44627   1.10847  -2.03361
H            1.57799  -1.11110  -1.28031
H            5.07550  -0.47823  -0.44488
H            1.09336   0.28234   1.39271
H            0.89509  -1.42347   1.10159
H           -1.32784  -0.23496   0.97769
H           -0.93147  -0.94245  -0.56840
