  21

 N          0.9447095730        0.1938198749       -0.0592836413
 C          2.4379847126        0.1962066278       -0.0652234954
 C          2.9632780289        0.1713804926       -1.5009631045
 C          4.4715876831        0.1698459247       -1.5007767060
 C          5.1882492563       -1.0212712759       -1.4979538121
 F          4.5031802000       -2.1699481268       -1.4664296261
 C          6.5792770785       -1.0386955938       -1.5158997600
 F          7.2335085363       -2.1902028549       -1.5128398991
 C          7.2780175117        0.1696710606       -1.5291385631
 F          8.5994356474        0.1697569745       -1.5440255338
 C          6.5794658388        1.3782881192       -1.5154677031
 F          7.2340647017        2.5295649758       -1.5117814367
 C          5.1886344090        1.3608097513       -1.4976921732
 F          4.5026736813        2.5091757018       -1.4656095140
 H          0.5776514501        0.2102604669        0.9010826087
 H          0.5917652270       -0.6497709230       -0.5322842538
 H          0.5889662155        1.0189507178       -0.5618361437
 H          2.7904324832       -0.6823081312        0.4781178807
 H          2.7874607668        1.0948591337        0.4462053353
 H          2.6183873253        1.0528015451       -2.0440357546
 H          2.6162396736       -0.7264344611       -2.0148347042
