33
 xtb: 6.5.1 (fef0646)
N           -5.10530073508883        1.36513775968302       -1.21711009761573
C           -5.48697225047745        0.07657641511036       -0.57165199362351
C           -4.73525038912254       -0.16468695175072        0.73600681104536
C           -3.25219804096457       -0.28556093784591        0.54524092881237
C           -2.69057543223207       -1.48184947849992        0.11362188072423
C           -1.33219288106899       -1.59669158307062       -0.07772420221108
C           -2.41460760647608        0.80320004311816        0.76373891344714
C           -1.05603748359117        0.69755101253777        0.56990941027729
C           -0.49017251196696       -0.50777231592692        0.15582823137974
N            0.85138369799419       -0.60247816346483       -0.10300102630657
N            1.63393019765789        0.37519481395568        0.20134040244343
C            2.98056224157316        0.27317382722775       -0.00274966024960
C            3.56482338004802       -0.96820546269872       -0.27185156175455
C            4.93081822501996       -1.08769818968109       -0.38890153893652
C            5.73880647165360        0.02560922344877       -0.24059219963584
C            5.17592107683197        1.26044386575201        0.03235456082002
C            3.81126913649178        1.38680963267054        0.15528366520595
H           -5.31666130048227        2.15355113499668       -0.63495421604745
H           -5.61439553016236        1.48380711334292       -2.12849959636300
H           -4.09776888866582        1.36880363155297       -1.45183192700010
H           -5.28757631647545       -0.76657485132751       -1.26239700481228
H           -6.56981901739222        0.05859579823458       -0.40431150852334
H           -5.10621131576259       -1.05733752718125        1.23847920011735
H           -4.94656290253540        0.66916317197596        1.42063830493096
H           -3.33202278115024       -2.32412794932820       -0.05689792663622
H           -0.89764192058548       -2.52393916913512       -0.39236618488686
H           -2.83896510271176        1.74387640974432        1.09598418841888
H           -0.40464110861572        1.54229880998700        0.75073463310375
H            2.91471189842651       -1.81637599484854       -0.42190307824532
H            5.36119892818405       -2.04089682783441       -0.66585632373154
H            6.80715342842429       -0.07332758090446       -0.36121416313204
H            5.81781715457197        2.11195088198839        0.18473659179120
H            3.37286074035159        2.33097997138312        0.42363633291345
