26
1.388
N           -3.19174  -0.43277  -1.43636
C           -3.26062   1.03614  -1.20533
C           -2.67561   1.44336   0.14766
C           -1.19562   1.27700   0.24569
C           -0.36167   2.06530   0.97584
C            1.00694   1.67786   0.91144
C            1.23599   0.58155   0.12894
C            2.52281  -0.02913  -0.11349
C            2.74582  -1.12309  -0.90113
C            4.11198  -1.51319  -0.96360
C            4.92784  -0.72233  -0.22821
S            4.03280   0.52453   0.56058
S           -0.27506   0.03187  -0.53549
Cl          -4.94677  -2.03968   1.07023
H           -3.72667  -0.94687  -0.71082
H           -2.21452  -0.74675  -1.37063
H           -3.55700  -0.70893  -2.36263
H           -4.30559   1.36244  -1.28368
H           -2.72499   1.56013  -2.00608
H           -3.14853   0.85292   0.94068
H           -2.92644   2.48862   0.36703
H           -0.71112   2.90667   1.55583
H            1.79818   2.19636   1.43141
H            1.95299  -1.63664  -1.42346
H            4.46043  -2.35751  -1.54164
H            5.99201  -0.83970  -0.13594
