13

N          0.98404        0.02979        0.09294
C          2.47574        0.04761        0.06858
C          2.98473        0.98102       -1.02897
C          2.47999        2.39433       -0.78776
C          2.04702        3.60667       -0.58084
H          0.62629       -0.58394        0.83593
H          0.58722       -0.29085       -0.79989
H          0.60985        0.97349        0.27065
H          2.80166       -0.98235       -0.09971
H          2.79540        0.37554        1.06236
H          2.64171        0.64098       -2.01248
H          4.07978        0.98598       -1.03580
H          1.71809        4.61163       -0.42826
