21
 xtb: 6.5.1 (fef0646)
N           -0.53477036850681       -1.48698254021285        0.74460683293329
C            0.34882541581644       -1.40159066323115       -0.45666876607472
C            0.70259550012302        0.03397568841057       -0.84033150583538
C            1.40337879741515        0.82002201073717        0.27098438756597
C            2.70762650143749        0.18705076924598        0.76634559392247
C            3.77287640872398        0.07629311627676       -0.31491344596962
Cl          -3.43879360248304        0.86189123924314       -0.13076661150107
H           -1.45458753420810       -0.83796406783559        0.52500877419324
H           -0.18088060285937       -1.04902127578362        1.56534183343295
H           -0.95222733117015       -2.37487822571701        0.92209516115791
H           -0.15609619277339       -1.89170798522940       -1.30137140554941
H            1.20378578669844       -1.96988257866727       -0.21644936124271
H           -0.19956912289658        0.58135695040434       -1.15902340627805
H            1.34175922003578        0.01393733341348       -1.73311594733373
H            0.71243885949441        0.95641655969024        1.10939549838095
H            1.61969267248750        1.84174762228916       -0.08110655275657
H            2.49522868215968       -0.80688020568840        1.18074999173551
H            3.09870925819194        0.76502857916649        1.61150051036487
H            4.70916852341927       -0.33120306816778        0.07368473925526
H            4.00014730572867        1.05711271351872       -0.74407561591097
H            3.45474178214351       -0.56655031729636       -1.13400969298610
