28
 xtb: 6.5.1 (fef0646)
N           -2.55127741746158        0.04979912435993        0.58845520726745
C           -1.86911791038708        0.59037282905838       -0.62387599596426
C           -0.34236976042370        0.40136929185328       -0.66606580625603
C            0.08583455163265       -1.08257431722052       -0.69223047595409
C            1.60998629062644       -1.21872570710502       -0.85180476146954
C            2.36776669950024       -0.46811789717626        0.26449542514666
C            3.86645954371216       -0.56799376886576        0.06628609282132
O            4.34874559522250       -0.06792914073390       -1.09453371764987
O            4.55649305297691       -1.07118679366443        0.92563917942169
C            1.91829515732295        1.00565203875850        0.33176234147047
C            0.39198165159048        1.12624337450175        0.48388958585776
Cl          -5.72412976239511        0.53165279845373        0.48138752270600
H           -2.32443183740203       -0.98022303279632        0.69526829552424
H           -3.51798891909238        0.17762110624667        0.59540998361310
H           -2.12549904111326        0.48207032502393        1.45813120060891
H           -2.08705434648255        1.65172396244333       -0.69551692409702
H           -2.29937325274261        0.11572069348661       -1.50032629643446
H            0.04028767911866        0.85205549571710       -1.61251182910298
H           -0.42814141085098       -1.61766622557495       -1.49547121577932
H           -0.20699793322660       -1.55777482416130        0.23551422391816
H            1.94193541077798       -0.80946622784846       -1.82179789479536
H            1.93131977916148       -2.27284442599265       -0.87347171988764
H            2.14255526701497       -0.94692235910307        1.22297064558558
H            5.32565685072885       -0.18822474695548       -1.10555004184968
H            2.26248056051998        1.50777418116063       -0.58935505888196
H            2.45756396495602        1.52062561343979        1.14347854247623
H            0.09762345945566        2.17852493811118        0.52646370498930
H            0.10480158651082        0.68405886821847        1.42929951681587
