 xtb: 6.5.1 (fef0646)
          01242316573D

 28 27  0     0  0            999 V2000
   -2.4643    0.0249    0.6140 N   0  0  0  0  0  0  0  0  0  0  0  0
   -1.8380    0.5833   -0.6178 C   0  0  0  0  0  0  0  0  0  0  0  0
   -0.3140    0.4029   -0.6761 C   0  0  0  0  0  0  0  0  0  0  0  0
    0.1106   -1.0820   -0.7030 C   0  0  0  0  0  0  0  0  0  0  0  0
    1.6340   -1.2196   -0.8580 C   0  0  0  0  0  0  0  0  0  0  0  0
    2.3867   -0.4691    0.2613 C   0  0  0  0  0  0  0  0  0  0  0  0
    3.8850   -0.5708    0.0665 C   0  0  0  0  0  0  0  0  0  0  0  0
    4.3693   -0.0710   -1.0941 O   0  0  0  0  0  0  0  0  0  0  0  0
    4.5755   -1.0747    0.9271 O   0  0  0  0  0  0  0  0  0  0  0  0
    1.9428    1.0062    0.3259 C   0  0  0  0  0  0  0  0  0  0  0  0
    0.4174    1.1297    0.4744 C   0  0  0  0  0  0  0  0  0  0  0  0
   -5.9486    0.5596    0.4854 Cl  0  0  0  0  0  0  0  0  0  0  0  0
   -2.2948   -0.9864    0.6986 H   0  0  0  0  0  0  0  0  0  0  0  0
   -3.4902    0.1658    0.6114 H   0  0  0  0  0  0  0  0  0  0  0  0
   -2.0955    0.4763    1.4619 H   0  0  0  0  0  0  0  0  0  0  0  0
   -2.0819    1.6489   -0.6910 H   0  0  0  0  0  0  0  0  0  0  0  0
   -2.2943    0.1127   -1.4959 H   0  0  0  0  0  0  0  0  0  0  0  0
    0.0476    0.8526   -1.6155 H   0  0  0  0  0  0  0  0  0  0  0  0
   -0.4208   -1.6169   -1.4991 H   0  0  0  0  0  0  0  0  0  0  0  0
   -0.1999   -1.5582    0.2321 H   0  0  0  0  0  0  0  0  0  0  0  0
    1.9500   -0.8098   -1.8232 H   0  0  0  0  0  0  0  0  0  0  0  0
    1.9382   -2.2731   -0.8749 H   0  0  0  0  0  0  0  0  0  0  0  0
    2.1469   -0.9469    1.2219 H   0  0  0  0  0  0  0  0  0  0  0  0
    5.3308   -0.1889   -1.1057 H   0  0  0  0  0  0  0  0  0  0  0  0
    2.2706    1.5073   -0.5910 H   0  0  0  0  0  0  0  0  0  0  0  0
    2.4646    1.5206    1.1419 H   0  0  0  0  0  0  0  0  0  0  0  0
    0.1051    2.1796    0.5229 H   0  0  0  0  0  0  0  0  0  0  0  0
    0.1123    0.6857    1.4269 H   0  0  0  0  0  0  0  0  0  0  0  0
  1  2  1  0  0  0  0
  2  3  1  0  0  0  0
  3  4  1  0  0  0  0
  4  5  1  0  0  0  0
  5  6  1  0  0  0  0
  6  7  1  0  0  0  0
  7  8  1  0  0  0  0
  7  9  2  0  0  0  0
  6 10  1  0  0  0  0
  3 11  1  0  0  0  0
 10 11  1  0  0  0  0
  1 13  1  0  0  0  0
  1 14  1  0  0  0  0
  1 15  1  0  0  0  0
  2 16  1  0  0  0  0
  2 17  1  0  0  0  0
  3 18  1  0  0  0  0
  4 19  1  0  0  0  0
  4 20  1  0  0  0  0
  5 21  1  0  0  0  0
  5 22  1  0  0  0  0
  6 23  1  0  0  0  0
  8 24  1  0  0  0  0
 10 25  1  0  0  0  0
 10 26  1  0  0  0  0
 11 27  1  0  0  0  0
 11 28  1  0  0  0  0
M  END
