15
0.0
N            0.58035  -1.35978  -0.53140
C            1.51241  -0.92440   0.54938
C            1.62464   0.59502   0.65288
C            2.25743   1.23089  -0.57547
Cl          -2.47786   0.26057   0.02203
H           -0.35041  -0.92700  -0.40089
H            0.45371  -2.38184  -0.54653
H            0.92296  -1.07398  -1.45879
H            2.50459  -1.35784   0.37649
H            1.17396  -1.34234   1.50610
H            2.20209   0.86453   1.54777
H            0.62593   1.01832   0.81963
H            3.25109   0.82078  -0.76491
H            2.36519   2.31249  -0.46733
H            1.65969   1.05469  -1.47100
