15
0.289
N            0.45941  -1.58143   0.48719
C            1.72938  -1.10197  -0.13276
C            2.16595   0.26413   0.39191
C            1.20845   1.38297   0.01140
Cl          -2.27595   0.50408  -0.34081
H            0.54031  -1.61079   1.51535
H            0.20527  -2.52571   0.16417
H           -0.32746  -0.95494   0.25818
H            1.61222  -1.05779  -1.22209
H            2.51875  -1.84330   0.04565
H            3.17344   0.49880   0.02192
H            2.26758   0.21449   1.48341
H            1.55831   2.35790   0.35839
H            0.21780   1.22510   0.44002
H            1.08506   1.44616  -1.07132
