15
0.127
N            0.41625  -1.60897  -0.22428
C            1.50730  -0.74930   0.32169
C            1.59954   0.59339  -0.39483
C            2.70309   1.48287   0.15921
Cl          -2.57632   0.20430   0.06855
H           -0.49586  -1.12708  -0.14722
H            0.34224  -2.50649   0.27466
H            0.57150  -1.81159  -1.22094
H            2.46684  -1.27512   0.24938
H            1.34768  -0.58439   1.39401
H            0.63089   1.10500  -0.32841
H            1.75401   0.42070  -1.46745
H            2.54592   1.69419   1.21855
H            2.75880   2.44131  -0.36152
H            3.67966   1.00358   0.06894
