 xtb: 6.5.1 (fef0646)
          01242310033D

 25 25  0     0  0            999 V2000
   -3.2810    0.0726   -0.6267 N   0  0  0  0  0  0  0  0  0  0  0  0
   -2.1516    0.5385   -1.4760 C   0  0  0  0  0  0  0  0  0  0  0  0
   -0.8150    0.2091   -0.8873 C   0  0  0  0  0  0  0  0  0  0  0  0
   -0.4845    0.6509    0.4059 C   0  0  0  0  0  0  0  0  0  0  0  0
    0.7291    0.3659    0.9612 C   0  0  0  0  0  0  0  0  0  0  0  0
    0.1035   -0.5233   -1.5955 C   0  0  0  0  0  0  0  0  0  0  0  0
    1.3695   -0.8376   -1.0529 C   0  0  0  0  0  0  0  0  0  0  0  0
    1.6890   -0.3844    0.2479 C   0  0  0  0  0  0  0  0  0  0  0  0
    2.9553   -0.6985    0.7907 C   0  0  0  0  0  0  0  0  0  0  0  0
    3.8581   -1.4276    0.0721 C   0  0  0  0  0  0  0  0  0  0  0  0
    3.5421   -1.8763   -1.2160 C   0  0  0  0  0  0  0  0  0  0  0  0
    2.3274   -1.5901   -1.7690 C   0  0  0  0  0  0  0  0  0  0  0  0
   -3.1168    1.9667    2.3231 Cl  0  0  0  0  0  0  0  0  0  0  0  0
   -4.1996    0.2405   -1.0694 H   0  0  0  0  0  0  0  0  0  0  0  0
   -3.2803    0.5622    0.2880 H   0  0  0  0  0  0  0  0  0  0  0  0
   -3.2017   -0.9381   -0.4350 H   0  0  0  0  0  0  0  0  0  0  0  0
   -2.2216    1.6217   -1.6298 H   0  0  0  0  0  0  0  0  0  0  0  0
   -2.2339    0.0916   -2.4737 H   0  0  0  0  0  0  0  0  0  0  0  0
   -1.2137    1.2134    0.9657 H   0  0  0  0  0  0  0  0  0  0  0  0
    0.9677    0.7092    1.9544 H   0  0  0  0  0  0  0  0  0  0  0  0
   -0.1393   -0.8681   -2.5865 H   0  0  0  0  0  0  0  0  0  0  0  0
    3.1984   -0.3534    1.7822 H   0  0  0  0  0  0  0  0  0  0  0  0
    4.8219   -1.6613    0.4965 H   0  0  0  0  0  0  0  0  0  0  0  0
    4.2654   -2.4515   -1.7724 H   0  0  0  0  0  0  0  0  0  0  0  0
    2.0846   -1.9357   -2.7605 H   0  0  0  0  0  0  0  0  0  0  0  0
  1  2  1  0  0  0  0
  2  3  1  0  0  0  0
  3  4  4  0  0  0  0
  4  5  2  0  0  0  0
  3  6  2  0  0  0  0
  6  7  4  0  0  0  0
  5  8  4  0  0  0  0
  7  8  4  0  0  0  0
  8  9  4  0  0  0  0
  9 10  2  0  0  0  0
 10 11  4  0  0  0  0
  7 12  4  0  0  0  0
 11 12  2  0  0  0  0
  1 14  1  0  0  0  0
  1 15  1  0  0  0  0
  1 16  1  0  0  0  0
  2 17  1  0  0  0  0
  2 18  1  0  0  0  0
  4 19  1  0  0  0  0
  5 20  1  0  0  0  0
  6 21  1  0  0  0  0
  9 22  1  0  0  0  0
 10 23  1  0  0  0  0
 11 24  1  0  0  0  0
 12 25  1  0  0  0  0
M  END
