11
 xtb: 6.5.1 (fef0646)
N           -1.91032688206662        0.07992258195638       -0.27197521671860
C           -0.60401168015338       -0.13322458642242        0.44000574034915
C            0.62053743844925       -0.01007697569293       -0.45775599613966
F            1.74120379761670        0.05557202053199        0.28665139405012
H           -1.97818433729603       -0.65354252232433       -1.02638986046546
H           -1.99769501739666        0.97086321168750       -0.68979614329264
H           -2.69272874089922       -0.10235087717783        0.36280906906412
H           -0.56284200174259       -1.06594765236690        0.95569612546360
H           -0.54864082510412        0.66504099327904        1.24269666067414
H            0.62721469581671        1.01337385652811       -0.97916127813670
H            0.67756663920043       -0.75271858527670       -1.19745326399314
