 xtb: 6.5.1 (fef0646)
          02032321163D

 11 10  0     0  0            999 V2000
   -1.9098    0.0244   -0.2805 N   0  0  0  0  0  0  0  0  0  0  0  0
   -0.6046   -0.0751    0.4489 C   0  0  0  0  0  0  0  0  0  0  0  0
    0.6197    0.0744   -0.4448 C   0  0  0  0  0  0  0  0  0  0  0  0
    1.7420   -0.0249    0.2743 F   0  0  0  0  0  0  0  0  0  0  0  0
   -1.9777   -0.7021   -0.9945 H   0  0  0  0  0  0  0  0  0  0  0  0
   -1.9973    0.9345   -0.7349 H   0  0  0  0  0  0  0  0  0  0  0  0
   -2.6929   -0.0873    0.3654 H   0  0  0  0  0  0  0  0  0  0  0  0
   -0.5471   -1.0424    0.9693 H   0  0  0  0  0  0  0  0  0  0  0  0
   -0.5648    0.6913    1.2367 H   0  0  0  0  0  0  0  0  0  0  0  0
    0.6431    1.0517   -0.9469 H   0  0  0  0  0  0  0  0  0  0  0  0
    0.6609   -0.7068   -1.2168 H   0  0  0  0  0  0  0  0  0  0  0  0
  1  2  1  0  0  0  0
  2  3  1  0  0  0  0
  3  4  1  0  0  0  0
  1  5  1  0  0  0  0
  1  6  1  0  0  0  0
  1  7  1  0  0  0  0
  2  8  1  0  0  0  0
  2  9  1  0  0  0  0
  3 10  1  0  0  0  0
  3 11  1  0  0  0  0
M  CHG  1   1   1
M  END
