  15

 N         -2.3548851636        0.2008412688       -0.1084827262
 C         -1.0279405246       -0.4820379348       -0.1953401127
 C          0.1089289465        0.3435544155        0.4019616226
 C          1.4378834516       -0.3272331738        0.2965179124
 C          2.4687419576        0.1899474924       -0.3402392093
 H         -3.0967820469       -0.3749044276       -0.5185968552
 H         -2.3336946288        1.0953186314       -0.6073615887
 H         -2.6008352444        0.3882828796        0.8681113586
 H         -0.8044382986       -0.7083674737       -1.2444933657
 H         -1.0861004080       -1.4522155619        0.3114259647
 H         -0.1047166279        0.5675417654        1.4530773710
 H          0.1500002789        1.3175657463       -0.0961162385
 H          1.5430870114       -1.2899131325        0.7725342307
 H          2.4024068234        1.1437572082       -0.8253817338
 H          3.4108216382       -0.3205004202       -0.3969930634
          15
        -16.21982980
 N         -1.7116236130       -0.8462225704       -0.0731411013
 C         -1.2987777836        0.5690130538        0.1665949920
 C          0.1211112566        0.8622827186       -0.3196777795
 C          1.1649554065        0.1039058832        0.4266494017
 C          2.1751183840       -0.5115933204       -0.1529792018
 H         -2.6616243964       -1.0216948474        0.2705427820
 H         -1.0764601071       -1.4938894548        0.4044297915
 H         -1.6893291354       -1.0647156947       -1.0743829754
 H         -1.3749694630        0.7898514444        1.2376598585
 H         -2.0153688357        1.2357509364       -0.3292102695
 H          0.3389979596        1.9351069368       -0.2447393766
 H          0.1908646587        0.6230021192       -1.3858514146
 H          1.0947473138        0.0998791517        1.5033056342
 H          2.2913826416       -0.5069011985       -1.2187081759
 H          2.9189483899       -1.0347007716        0.4163668378
