  15

 N          0.9641639692       -0.0443225676        0.0595281993
 C          2.4470733407       -0.0677764350        0.0779939592
 C          2.9566982961       -1.4301329561        0.5475330743
 C          4.4559286044       -1.4486818156        0.5668675729
 C          5.1795758994       -1.6872483847        1.6441655579
 H          0.6176166228        0.8720414254       -0.2472325292
 H          0.5970881776       -0.2378077874        0.9990224677
 H          0.6057515864       -0.7638570906       -0.5797398659
 H          2.8116388926        0.7071827207        0.7520154524
 H          2.8230559722        0.1397393142       -0.9238388930
 H          2.6148805175       -2.2103022191       -0.1361608631
 H          2.5875680993       -1.6539613137        1.5485716529
 H          4.9411634937       -1.2523577758       -0.3796550433
 H          4.7303348654       -1.8924780813        2.6024808940
 H          6.2558816626       -1.7011970334        1.6189383640
