  15

 N          1.0227600000        0.0848900000       -0.0284800000
 C          2.5084600000        0.0837300000       -0.0275000000
 C          3.0238700000        0.7995500000       -1.2733200000
 C          4.5215700000        0.8132400000       -1.3155700000
 C          5.2355100000        0.2598200000       -2.3045200000
 H          0.6547400000       -0.3949600000        0.8037800000
 H          0.6449600000       -0.4008100000       -0.8532300000
 H          0.6429200000        1.0407200000       -0.0254500000
 H          2.8226900000       -0.9641800000        0.0021700000
 H          2.8234600000        0.5851100000        0.8930400000
 H          2.6618400000        1.8347900000       -1.2884300000
 H          2.6186900000        0.3112600000       -2.1689700000
 H          5.0553500000        1.3190300000       -0.5121800000
 H          4.7692800000       -0.2386900000       -3.1506400000
 H          6.3216000000        0.3047300000       -2.3033600000
