  16

 N         -0.6498785515        1.4736859587       -0.1032836510
 C          0.6036193370        0.9566385231        0.5118764676
 C          1.2284264164       -0.1637102067       -0.3131795036
 C          2.4862578072       -0.6987604087        0.2871668438
 C          3.6883993782       -0.4064631553       -0.1731546735
 Cl        -2.8257161437       -1.2182892660       -0.4844153009
 H         -1.0939290089        2.2096458595        0.4719750953
 H         -1.3406733670        0.7083925115       -0.2235939768
 H         -0.4678982745        1.8728868474       -1.0381449006
 H          0.3965655599        0.5957283977        1.5270432048
 H          1.3246706938        1.7743097882        0.6332080212
 H          1.4291740339        0.1987817594       -1.3287839233
 H          0.5014831927       -0.9759323245       -0.4418861484
 H          2.3908374451       -1.3153759843        1.1682052746
 H          3.8152848621        0.2264865546       -1.0310556161
 H          4.5819852241       -0.7869903442        0.2867227492
          16
        -21.04798645
 N          0.4551765870        1.3707693993       -0.8979466746
 C          1.3894041199        1.4153793479        0.2597412947
 C          1.4793717514        0.0699699333        0.9773217948
 C          1.9282655550       -1.0365070564        0.0833295549
 C          1.0855574387       -1.8030109831       -0.5828791467
 Cl        -2.4908155006       -0.1540638745        0.1403322691
 H          0.8046674185        0.7325655736       -1.6307122663
 H          0.3169639243        2.3028118605       -1.3327920862
 H         -0.4704302861        1.0148490032       -0.6052520686
 H          1.0693131209        2.1984926842        0.9593933810
 H          2.3848432746        1.7175687969       -0.0878704445
 H          0.4971983467       -0.1857124091        1.3941555966
 H          2.1485533109        0.1430358651        1.8454322624
 H          2.9906279797       -1.1673081298       -0.0585672571
 H          0.0246488952       -1.6678953305       -0.4863821096
 H          1.4207011012       -2.5812229220       -1.2437636446
          16
        -21.04809347
 N         -0.4671959879        1.3779666135        0.8936493436
 C         -1.4069930955        1.4076717408       -0.2600761396
 C         -1.4803717757        0.0603522837       -0.9759702409
 C         -1.9112368566       -1.0515976549       -0.0799083701
 C         -1.0563323727       -1.8047816803        0.5859518250
 Cl         2.4860664042       -0.1442660545       -0.1409929612
 H         -0.3371012468        2.3098782320        1.3226899934
 H          0.4641994471        1.0287447030        0.5975346195
 H         -0.8061255093        0.7391588061        1.6304599431
 H         -1.1013132366        2.1945241783       -0.9619797911
 H         -2.4052811548        1.6957615050        0.0913420638
 H         -0.4959148194       -0.1819871880       -1.3953888552
 H         -2.1527780836        0.1232260371       -1.8424009844
 H         -2.9713013225       -1.1985328403        0.0628595615
 H          0.0021068110       -1.6528840981        0.4876634949
 H         -1.3791724065       -2.5879666226        1.2470357403
