  16

 N          1.0376500000        0.2766500000        0.2828300000
 C          2.5011800000        0.3672800000        0.3092500000
 C          2.9974600000        1.1883300000       -0.8792600000
 C          4.4951200000        1.2905400000       -0.8971200000
 C          5.1691600000        2.4463000000       -0.8226900000
 Cl         0.1450300000       -1.7803600000       -1.5155400000
 H          0.6407200000       -0.2756900000        1.0512700000
 H          0.7510100000       -0.3388700000       -0.5357800000
 H          0.5159200000        1.1486800000        0.1632500000
 H          2.8926100000       -0.6567500000        0.2894700000
 H          2.7760200000        0.8346300000        1.2603200000
 H          2.5442000000        2.1876000000       -0.8491800000
 H          2.6710700000        0.7278200000       -1.8209400000
 H          5.0557400000        0.3634100000       -1.0138900000
 H          4.6659500000        3.4036100000       -0.7323900000
 H          6.2552500000        2.4582600000       -0.8622800000
