26
 xtb: 6.5.1 (fef0646)
N           -3.22482616303341       -1.09315843964301        0.12999762400545
C           -1.85724539602093       -0.50075375438649        0.07713463306117
C           -0.78463982837602       -1.52504406729209        0.42620232719383
C            0.60256577225058       -0.95690427109428        0.37207648016324
C            1.19205273408583       -0.41825967062512        1.50638141340422
C            2.45437475241108        0.12695651015913        1.44968713476030
C            3.17449413880832        0.16235806262214        0.25283967617365
O            4.45360750873504        0.72847275964261        0.28213113930446
C            5.12980628008168        0.73070410259308       -0.95458099309846
C            2.56663223242497       -0.36949103483830       -0.88861738081916
C            1.30468278395812       -0.91539255493041       -0.82563496674792
Cl          -5.64682450983382        1.57119068334469       -0.64692180134086
H           -3.34188241505592       -1.82190874775164       -0.55249619487016
H           -3.95639751106811       -0.34261723559996       -0.09585512647544
H           -3.45190217961896       -1.43306997312052        1.05795637500339
H           -1.78704050179459        0.35454329950553        0.78358780993760
H           -1.67509171794226       -0.04765218241786       -0.90877409831523
H           -0.87181436257883       -2.35775688258094       -0.30408671742643
H           -0.98229985522637       -1.95462851716916        1.38500866456829
H            0.60923565535268       -0.38822615681414        2.40762704780583
H            2.87118227453494        0.58484668099826        2.31819576279695
H            6.11326761446264        1.18408845743749       -0.79430192680906
H            4.58454602846240        1.28944877082915       -1.68761087394640
H            5.28278262770019       -0.30807468763676       -1.27291430135496
H            3.11564604046061       -0.39650109614812       -1.81647282917041
H            0.87259240460811       -1.35884244580211       -1.71850065609188
