 xtb: 6.5.1 (fef0646)
          01242317073D

 26 25  0     0  0            999 V2000
   -3.2474   -1.0401    0.1230 N   0  0  0  0  0  0  0  0  0  0  0  0
   -1.8683   -0.4745    0.0807 C   0  0  0  0  0  0  0  0  0  0  0  0
   -0.8003   -1.5183    0.3859 C   0  0  0  0  0  0  0  0  0  0  0  0
    0.5906   -0.9558    0.3469 C   0  0  0  0  0  0  0  0  0  0  0  0
    1.1557   -0.3846    1.4776 C   0  0  0  0  0  0  0  0  0  0  0  0
    2.4179    0.1623    1.4336 C   0  0  0  0  0  0  0  0  0  0  0  0
    3.1649    0.1652    0.2534 C   0  0  0  0  0  0  0  0  0  0  0  0
    4.4399    0.7387    0.2940 O   0  0  0  0  0  0  0  0  0  0  0  0
    5.1397    0.7159   -0.9313 C   0  0  0  0  0  0  0  0  0  0  0  0
    2.5842   -0.4036   -0.8831 C   0  0  0  0  0  0  0  0  0  0  0  0
    1.3210   -0.9488   -0.8334 C   0  0  0  0  0  0  0  0  0  0  0  0
   -5.5728    1.5090   -0.5973 Cl  0  0  0  0  0  0  0  0  0  0  0  0
   -3.3543   -1.7984   -0.5634 H   0  0  0  0  0  0  0  0  0  0  0  0
   -3.9618   -0.3208   -0.0872 H   0  0  0  0  0  0  0  0  0  0  0  0
   -3.4571   -1.4293    1.0518 H   0  0  0  0  0  0  0  0  0  0  0  0
   -1.7855    0.3552    0.7922 H   0  0  0  0  0  0  0  0  0  0  0  0
   -1.6790   -0.0314   -0.9040 H   0  0  0  0  0  0  0  0  0  0  0  0
   -0.8787   -2.3480   -0.3244 H   0  0  0  0  0  0  0  0  0  0  0  0
   -0.9863   -1.9629    1.3690 H   0  0  0  0  0  0  0  0  0  0  0  0
    0.5927   -0.3708    2.3955 H   0  0  0  0  0  0  0  0  0  0  0  0
    2.8544    0.6030    2.3127 H   0  0  0  0  0  0  0  0  0  0  0  0
    6.1124    1.1873   -0.7869 H   0  0  0  0  0  0  0  0  0  0  0  0
    4.5879    1.2748   -1.6889 H   0  0  0  0  0  0  0  0  0  0  0  0
    5.2937   -0.3144   -1.2558 H   0  0  0  0  0  0  0  0  0  0  0  0
    3.1274   -0.4155   -1.8109 H   0  0  0  0  0  0  0  0  0  0  0  0
    0.8837   -1.3765   -1.7200 H   0  0  0  0  0  0  0  0  0  0  0  0
  1  2  1  0  0  0  0
  2  3  1  0  0  0  0
  3  4  1  0  0  0  0
  4  5  4  0  0  0  0
  5  6  4  0  0  0  0
  6  7  4  0  0  0  0
  7  8  1  0  0  0  0
  8  9  1  0  0  0  0
  7 10  4  0  0  0  0
  4 11  4  0  0  0  0
 10 11  4  0  0  0  0
  1 13  1  0  0  0  0
  1 14  1  0  0  0  0
  1 15  1  0  0  0  0
  2 16  1  0  0  0  0
  2 17  1  0  0  0  0
  3 18  1  0  0  0  0
  3 19  1  0  0  0  0
  5 20  1  0  0  0  0
  6 21  1  0  0  0  0
  9 22  1  0  0  0  0
  9 23  1  0  0  0  0
  9 24  1  0  0  0  0
 10 25  1  0  0  0  0
 11 26  1  0  0  0  0
M  END
