27
 xtb: 6.5.1 (fef0646)
N           -2.65484736473208       -0.54644446432185        1.07995630277651
C           -2.49968745737899        0.38255661443752       -0.07293615044577
C           -1.54977174480829       -0.12162050988265       -1.16106632728940
C           -0.03873978037271       -0.06753141656146       -0.82718757712359
C            0.45385068060474       -1.19995541078885        0.10451181830643
C            1.98741088424214       -1.17466265056349        0.23781285323757
C            2.47224699870632        0.19170941846646        0.75738927481685
C            1.96125647318293        1.34338920913557       -0.12826693393890
C            0.42867292482590        1.29799129873719       -0.27138660145414
H           -2.99445041458682       -1.46610986995577        0.79116603455329
H           -3.33186246713936       -0.15435901507285        1.78067001581921
H           -1.74677556445276       -0.66298819591166        1.58371722272952
H           -2.19860690663203        1.37192677457020        0.27289219052168
H           -3.50201434219086        0.53003262529815       -0.51215340757308
H           -1.71460049806183        0.47344788688921       -2.06804067500997
H           -1.81663914022799       -1.14237205338755       -1.43192074122069
H            0.50692709769089       -0.20876838343068       -1.77756880251025
H            0.10182653924066       -2.17550876098400       -0.26706337604367
H            0.01618163131866       -1.08051957126170        1.09148212393057
H            2.44269477288308       -1.37683313217117       -0.74485186933698
H            2.33244452177928       -1.98923866169517        0.88633519013432
H            3.56905267550092        0.20663180689884        0.82095177424460
H            2.11646571728367        0.32946692039145        1.78121703702951
H            2.42245310823465        1.27158774798254       -1.11959298098431
H            2.28485346466245        2.30905658517954        0.27754352229192
H            0.06576381257622        2.11424801878483       -0.90175508825333
H           -0.02368473013800        1.45490969544243        0.71454957964959
