28
 xtb: 6.5.1 (fef0646)
N           -1.64262242028281       -1.91937730078962       -0.00612924074682
C           -1.10974183023460       -1.34476886816618        1.26714863675244
C           -0.46364490244383        0.03376379562975        1.08197313238917
C            1.06060050609021       -0.00769185589868        0.86212614568513
C            1.65960124495003        1.41961907041353        0.82704138904137
C            3.18704389120857        1.38972743223358        0.65007697613126
C            3.57661581799999        0.62256580325997       -0.62482406927779
C            2.99466108038998       -0.80097969149587       -0.60737004822347
C            1.46738025657856       -0.77799930407369       -0.41625115487541
Cl          -4.12236158169124        0.75351014902275       -1.20321041566966
H           -0.99853130842819       -1.93421004395089       -0.77052064056440
H           -2.42388135544238       -1.18266863173414       -0.39541581278748
H           -2.16842107594503       -2.75632004204224        0.08051921914123
H           -0.41208437838733       -2.04684277684214        1.64075396639548
H           -1.93371700867658       -1.27517798564807        1.98865148768711
H           -0.67455680069048        0.66995568090601        1.95723510491119
H           -0.93026471726392        0.57949880145351        0.23970500592159
H            1.50209761546640       -0.53512702412665        1.71729361006190
H            1.38051244179880        1.97260824643735        1.73565282315187
H            1.20737764592835        1.97504918349067       -0.00010689531451
H            3.64360792892248        0.89800555641740        1.52253325517921
H            3.60248593416252        2.40393836660112        0.63802656976593
H            4.66693874299963        0.59002811093006       -0.74598111837523
H            3.19755946831081        1.15874760228925       -1.50069953233367
H            3.44375267642669       -1.37365939997898        0.21040005829056
H            3.25587330037842       -1.34397490228385       -1.52530563556069
H            1.06297014272726       -1.79488037087023       -0.39001908352624
H            0.98882350767529       -0.29382438811364       -1.28317966820154
