  29

 N          2.9765815381       -0.5925118692        0.5413129122
 C          2.2168384207        0.0695353190       -0.5162207535
 C          2.9324463076        1.3594469562       -0.9048637015
 O          4.1535331362        0.9836279316       -1.5095880966
 C          5.0176461767        1.9607931968       -1.9104574636
 C          4.7948631088        3.3079114931       -1.7711661800
 C          5.7506825953        4.2334603669       -2.2172875379
 C          6.9145993370        3.8209526157       -2.7969243239
 C          7.1779472606        2.4441836797       -2.9590194489
 C          8.3680190824        1.9767682244       -3.5540716930
 C          8.6022840670        0.6383862942       -3.7024314640
 C          7.6545173064       -0.2968479608       -3.2630695616
 C          6.4901886576        0.1231836770       -2.6819518892
 C          6.2228415830        1.4960406443       -2.5139871257
 Cl         2.9349596675        1.1775872101        2.8783466330
 H          2.5812390890       -1.4967011362        0.7721703713
 H          2.9682189795        0.3284901831        1.8004317282
 H          3.9380826103       -0.7156245524        0.2398402856
 H          1.2235369733        0.3075722906       -0.1313563458
 H          2.1126270735       -0.5583011929       -1.4110787016
 H          3.1148806577        1.9575910275       -0.0046054072
 H          2.3163425074        1.9330744077       -1.6086594848
 H          3.8902942131        3.6798448304       -1.3173830721
 H          5.5457760081        5.2863079135       -2.0911636676
 H          7.6474629585        4.5367506103       -3.1384590357
 H          9.0940185554        2.7025312443       -3.8921375558
 H          9.5178029711        0.2917165580       -4.1592654191
 H          7.8515271748       -1.3515660323       -3.3884445908
 H          5.7530919833       -0.5894439306       -2.3453094101
