40
1.437
N           -7.03935   0.94597  -1.37266
C           -7.40660  -0.43124  -0.94146
C           -6.75783  -0.80153   0.38944
C           -5.28246  -0.60602   0.37807
C           -4.63834   0.51765   0.78870
C           -3.22723   0.45149   0.65008
C           -2.78176  -0.73016   0.12755
C           -1.40326  -1.06795  -0.12304
C           -0.95599  -2.24939  -0.65016
C            0.44928  -2.31897  -0.79201
C            1.10570  -1.18929  -0.37461
C            2.52995  -0.97417  -0.39898
C            3.47579  -1.85953  -0.84923
C            4.80185  -1.37825  -0.75335
C            4.89855  -0.11778  -0.22870
C            6.12461   0.61165  -0.01949
C            6.22120   1.86866   0.51004
C            7.55594   2.34809   0.60313
C            8.47503   1.46446   0.14790
S            7.71755   0.01697  -0.40742
S            3.31014   0.48132   0.15259
S           -0.05084  -0.02323   0.20291
S           -4.13658  -1.77654  -0.19505
Cl          -7.09343   3.01559   1.44354
H           -6.03136   0.99968  -1.60460
H           -7.20449   1.62209  -0.60925
H           -7.57046   1.25776  -2.20237
H           -7.09843  -1.14391  -1.71605
H           -8.49791  -0.52035  -0.87126
H           -6.98053  -1.84255   0.65308
H           -7.18853  -0.19236   1.19275
H           -5.16181   1.38374   1.16604
H           -2.56162   1.25501   0.92609
H           -1.62356  -3.05013  -0.92948
H            0.95844  -3.18225  -1.19159
H            3.23058  -2.83476  -1.24079
H            5.66601  -1.94622  -1.06275
H            5.35886   2.43611   0.82529
H            7.80804   3.32171   0.99842
H            9.53714   1.62523   0.12707
