40
 xtb: 6.5.1 (fef0646)
N           -7.03973995717065        0.97017417905847       -1.34601516683795
C           -7.40572107986109       -0.41514751459089       -0.93675417135428
C           -6.75758610344052       -0.80211656255550        0.38978602290152
C           -5.28212292073606       -0.60754881433835        0.38272134851456
C           -4.63664885672754        0.50859664438708        0.81141099805086
C           -3.22565243710174        0.44323241067250        0.67253440732358
C           -2.78144073908254       -0.73052845552454        0.13125209271880
C           -1.40340558150173       -1.06584383958759       -0.12474509197876
C           -0.95792887586023       -2.23884516663329       -0.67221653268584
C            0.44742888878861       -2.30914362294725       -0.81261066214406
C            1.10565099921684       -1.18857220974243       -0.37343142129669
C            2.53062728756367       -0.97751869222346       -0.38894626646503
C            3.47878460964102       -1.87700227834281       -0.80654485577907
C            4.80485795446241       -1.39538573875557       -0.71262291576225
C            4.89929720919492       -0.12083475525772       -0.22142358248805
C            6.12505721645939        0.61123544475742       -0.01981576040440
C            6.22308514865130        1.86445570804759        0.51841472922423
C            7.55768443422421        2.34529127084780        0.60643630259340
C            8.47506240056762        1.46734907038611        0.13673157532115
S            7.71526764908386        0.02718560985192       -0.43692177265043
S            3.30773320628830        0.49799250746166        0.11544568999032
S           -0.04835717095830       -0.03440229358100        0.23509404675555
S           -4.13816302334449       -1.76514017902981       -0.21892792614309
Cl          -7.09764557268880        2.98749760114013        1.40380229350541
H           -6.03324020344763        1.00564614257021       -1.60466037821435
H           -7.19712657494322        1.62541259606142       -0.59557753795004
H           -7.57565696077997        1.27022754560402       -2.18958263038127
H           -7.09823812147440       -1.13639782369819       -1.71729444307856
H           -8.49762629958102       -0.51623897919734       -0.86991935242512
H           -6.98073575093136       -1.84348570364910        0.64982548902764
H           -7.18859593123508       -0.19498036067189        1.19466559885280
H           -5.16111602677454        1.37998209031374        1.17521681431391
H           -2.56092145292108        1.25125102387106        0.93605884806574
H           -1.62453302447037       -3.04520615428983       -0.94024388418549
H            0.95749395975472       -3.17752268816324       -1.20213073084775
H            3.23193523452228       -2.84295090098973       -1.22097305763123
H            5.66733521165109       -1.95402730155558       -1.04448897075053
H            5.35977283034233        2.43368086476373        0.83082042218410
H            7.80887119063109        3.32006963035586        1.00113698324862
H            9.53700840504850        1.62674145648423        0.12175015282302
