27
0.908
N           -4.82338   0.77392  -0.48526
C           -3.37523   0.47234  -0.68951
C           -2.67526   0.03453   0.59226
C           -1.21933  -0.26349   0.38563
C           -0.27708   0.75007   0.47004
C            1.08828   0.50119   0.24342
C            2.05951   1.51524   0.32777
C            3.39025   1.23446   0.09743
C            3.79305  -0.05446  -0.22160
C            2.86903  -1.07433  -0.31366
C            1.50337  -0.82562  -0.08596
C            0.52982  -1.83555  -0.17402
C           -0.80078  -1.55248   0.05489
H           -5.27336   1.06153  -1.36079
H           -4.94278   1.52992   0.19691
H           -5.31738  -0.05116  -0.12979
H           -2.87188   1.35496  -1.09973
H           -3.26739  -0.30779  -1.45147
H           -3.17323  -0.84832   1.00443
H           -2.78242   0.80945   1.35733
H           -0.59483   1.74820   0.71214
H            1.75277   2.51681   0.57507
H            4.12293   2.02186   0.16555
H            4.83621  -0.25967  -0.39913
H            3.18718  -2.07213  -0.56189
H            0.83381  -2.83685  -0.42543
H           -1.53474  -2.33608  -0.02295
