27
0.948
N           -4.85758   0.66066   0.44955
C           -3.41985   0.31190   0.65610
C           -2.65086   0.17166  -0.65300
C           -1.20390  -0.16804  -0.44751
C           -0.25493   0.83651  -0.33406
C            1.10264   0.54001  -0.11785
C            2.08164   1.54424  -0.00910
C            3.40487   1.21577   0.20059
C            3.79226  -0.11223   0.30862
C            2.86016  -1.12391   0.20831
C            1.50194  -0.82717  -0.00585
C            0.52114  -1.82816  -0.11272
C           -0.80107  -1.49801  -0.32645
H           -5.32843  -0.05937  -0.10818
H           -4.94549   1.55186  -0.04974
H           -5.35509   0.74652   1.34239
H           -3.34742  -0.62094   1.22628
H           -2.94398   1.07575   1.28130
H           -2.72716   1.09892  -1.22870
H           -3.11812  -0.59525  -1.27807
H           -0.56046   1.86416  -0.41413
H            1.78689   2.57598  -0.09280
H            4.14389   1.99611   0.28053
H            4.82971  -0.35460   0.47214
H            3.16623  -2.15232   0.29278
H            0.81326  -2.86029  -0.02561
H           -1.54059  -2.27642  -0.40312
