 xtb: 6.5.1 (fef0646)
          01242317093D

 18 16  0     0  0            999 V2000
   -0.5707   -1.8891   -0.4022 N   0  0  0  0  0  0  0  0  0  0  0  0
    0.6798   -1.9555    0.4099 C   0  0  0  0  0  0  0  0  0  0  0  0
    1.7295   -0.9403   -0.0336 C   0  0  0  0  0  0  0  0  0  0  0  0
    1.3077    0.5109    0.1983 C   0  0  0  0  0  0  0  0  0  0  0  0
    2.3867    1.5079   -0.1987 C   0  0  0  0  0  0  0  0  0  0  0  0
   -2.2107    1.2118    0.0495 Cl  0  0  0  0  0  0  0  0  0  0  0  0
   -0.3646   -2.0086   -1.4031 H   0  0  0  0  0  0  0  0  0  0  0  0
   -1.0408   -0.9746   -0.2905 H   0  0  0  0  0  0  0  0  0  0  0  0
   -1.2460   -2.6174   -0.1302 H   0  0  0  0  0  0  0  0  0  0  0  0
    1.0919   -2.9710    0.3524 H   0  0  0  0  0  0  0  0  0  0  0  0
    0.4391   -1.7985    1.4681 H   0  0  0  0  0  0  0  0  0  0  0  0
    1.9552   -1.0884   -1.0961 H   0  0  0  0  0  0  0  0  0  0  0  0
    2.6768   -1.1259    0.4889 H   0  0  0  0  0  0  0  0  0  0  0  0
    1.0383    0.6460    1.2538 H   0  0  0  0  0  0  0  0  0  0  0  0
    0.3859    0.7186   -0.3588 H   0  0  0  0  0  0  0  0  0  0  0  0
    2.0737    2.5409   -0.0307 H   0  0  0  0  0  0  0  0  0  0  0  0
    2.6445    1.4112   -1.2550 H   0  0  0  0  0  0  0  0  0  0  0  0
    3.3034    1.3465    0.3717 H   0  0  0  0  0  0  0  0  0  0  0  0
  1  2  1  0  0  0  0
  2  3  1  0  0  0  0
  3  4  1  0  0  0  0
  4  5  1  0  0  0  0
  1  7  1  0  0  0  0
  1  8  1  0  0  0  0
  1  9  1  0  0  0  0
  2 10  1  0  0  0  0
  2 11  1  0  0  0  0
  3 12  1  0  0  0  0
  3 13  1  0  0  0  0
  4 14  1  0  0  0  0
  4 15  1  0  0  0  0
  5 16  1  0  0  0  0
  5 17  1  0  0  0  0
  5 18  1  0  0  0  0
M  END
