 xtb: 6.5.1 (fef0646)
          01242314573D

 17 16  0     0  0            999 V2000
    1.0286    0.0641   -0.0210 N   0  0  0  0  0  0  0  0  0  0  0  0
    2.5098    0.0658   -0.0412 C   0  0  0  0  0  0  0  0  0  0  0  0
    3.0197    0.4085   -1.4374 C   0  0  0  0  0  0  0  0  0  0  0  0
    4.5474    0.4170   -1.4756 C   0  0  0  0  0  0  0  0  0  0  0  0
    5.0562    0.7548   -2.8573 C   0  0  0  0  0  0  0  0  0  0  0  0
    6.3798    0.7908   -3.0046 O   0  0  0  0  0  0  0  0  0  0  0  0
    4.3324    0.9850   -3.7991 O   0  0  0  0  0  0  0  0  0  0  0  0
    0.6760   -0.1641    0.9157 H   0  0  0  0  0  0  0  0  0  0  0  0
    0.6662   -0.6274   -0.6882 H   0  0  0  0  0  0  0  0  0  0  0  0
    0.6694    0.9870   -0.2932 H   0  0  0  0  0  0  0  0  0  0  0  0
    2.8714   -0.9195    0.2528 H   0  0  0  0  0  0  0  0  0  0  0  0
    2.8754    0.8004    0.6762 H   0  0  0  0  0  0  0  0  0  0  0  0
    2.6654    1.3911   -1.7512 H   0  0  0  0  0  0  0  0  0  0  0  0
    2.6641   -0.3164   -2.1707 H   0  0  0  0  0  0  0  0  0  0  0  0
    4.9428   -0.5627   -1.1984 H   0  0  0  0  0  0  0  0  0  0  0  0
    4.9441    1.1570   -0.7770 H   0  0  0  0  0  0  0  0  0  0  0  0
    6.8788    0.5936   -2.1914 H   0  0  0  0  0  0  0  0  0  0  0  0
  1  2  1  0  0  0  0
  2  3  1  0  0  0  0
  3  4  1  0  0  0  0
  4  5  1  0  0  0  0
  5  6  1  0  0  0  0
  5  7  2  0  0  0  0
  1  8  1  0  0  0  0
  1  9  1  0  0  0  0
  1 10  1  0  0  0  0
  2 11  1  0  0  0  0
  2 12  1  0  0  0  0
  3 13  1  0  0  0  0
  3 14  1  0  0  0  0
  4 15  1  0  0  0  0
  4 16  1  0  0  0  0
  6 17  1  0  0  0  0
M  CHG  1   1   1
M  END
