  22

 N         -3.4771721854        0.9921628938        1.3893444498
 C         -2.1076887678        0.5112312097        1.3382578325
 C         -1.3786435294        0.9187336767        0.0640801264
 C          0.0307844714        0.4426871167        0.0186734481
 C          0.3712089524       -0.8428947078        0.4218603325
 F         -0.5633564842       -1.6702730103        0.9214056587
 C          1.6882798616       -1.2720954837        0.3431906487
 F          2.0149269538       -2.5075248204        0.7517188669
 C          2.6689118706       -0.4203112990       -0.1404185492
 F          3.9427381763       -0.8348073653       -0.2097569287
 C          2.3339023591        0.8621039584       -0.5446288334
 F          3.2825355681        1.6897180818       -1.0086087276
 C          1.0172516128        1.2907442941       -0.4654075826
 F          0.6921806140        2.5401589424       -0.8412772605
 Cl        -4.5522148173       -0.3328331692       -1.4901595870
 H         -3.9443227138        0.6890668974        2.2372138668
 H         -4.1568366242        0.1917286819       -0.3299782668
 H         -3.4969527587        2.0055017853        1.3856665333
 H         -2.1193591768       -0.5836342285        1.3900859131
 H         -1.5468552485        0.8548545810        2.2182290786
 H         -1.3860497408        2.0093750441       -0.0355322195
 H         -1.9114692248        0.5323022679       -0.8109799765
          22
        -51.79366254
 N         -2.2702880031       -0.9636195757        1.4883280483
 C         -1.8651159174       -1.8191647346        0.3857789514
 C         -1.3242562882       -1.0169485050       -0.7954904474
 C          0.0100208345       -0.4319721895       -0.5004975078
 C          0.1619767037        0.9369490667       -0.3277496132
 F         -0.9089252952        1.7452806666       -0.4012160650
 C          1.4083963139        1.4681118590       -0.0303676072
 F          1.5495285136        2.7914324006        0.1385464773
 C          2.5034477426        0.6301142137        0.1104677453
 F          3.7075860405        1.1428669925        0.4042227458
 C          2.3505778991       -0.7395863588       -0.0354146520
 F          3.4029164723       -1.5547431841        0.1327645977
 C          1.1038643908       -1.2693488893       -0.3333836992
 F          0.9402464504       -2.6022046827       -0.4042239150
 Cl        -4.8096411846        0.5706072798       -0.0777220174
 H         -2.5118328559       -1.5038725573        2.3120682949
 H         -3.8033359675       -0.0219000136        0.5648719590
 H         -1.5174009255       -0.3366624108        1.7488896234
 H         -2.7330281193       -2.4163899314        0.0785052333
 H         -1.0963430080       -2.5298808770        0.7206298111
 H         -2.0206530878       -0.2089864727       -1.0445608257
 H         -1.2406241852       -1.6472331053       -1.6880749274
          22
        -51.79472781
 N         -3.2935060604        1.6918735022        1.0743403562
 C         -1.9408598474        1.1624605423        1.1291194757
 C         -1.4123364124        0.7656637708       -0.2446652777
 C          0.0063446539        0.3264557958       -0.1965943973
 C          0.3210959733       -1.0071406348        0.0238160818
 F         -0.6617312264       -1.9082106622        0.1916458120
 C          1.6469574549       -1.4059188189        0.1096313480
 F          1.9462889126       -2.6965309550        0.3206579296
 C          2.6613951325       -0.4686927879       -0.0088202848
 F          3.9434983072       -0.8542995849        0.0708090314
 C          2.3503731600        0.8683192242       -0.2006009163
 F          3.3305456442        1.7801470118       -0.2889378674
 C          1.0240997040        1.2655304551       -0.2853495720
 F          0.7197115693        2.5688962257       -0.4119987818
 Cl        -4.7407093854       -0.8230748354       -0.5966956566
 H         -3.6358152345        1.9242913981        1.9998875601
 H         -4.1955475501        0.1840859025        0.0858737969
 H         -3.3165546672        2.5461466773        0.5281222194
 H         -1.9267358482        0.2848691083        1.7879989345
 H         -1.2652937745        1.8998591728        1.5850148984
 H         -1.5013760394        1.6103264528       -0.9356984365
 H         -2.0231972238       -0.0416127675       -0.6627439810
