18
0.34
N           -0.17792  -1.71071   0.23538
C            1.18628  -1.24705  -0.15383
C            1.65496  -0.01371   0.63215
C            3.12788   0.28543   0.34474
C            0.78487   1.20742   0.33292
Cl          -2.65328   0.68643  -0.57070
H           -0.44486  -2.57444  -0.25755
H           -0.89154  -0.99872   0.01696
H           -0.22831  -1.89751   1.24851
H            1.21271  -1.02204  -1.22566
H            1.90307  -2.06367  -0.00898
H            1.55469  -0.25086   1.70520
H            3.48249   1.14202   0.92022
H            3.27437   0.51656  -0.71084
H            3.76582  -0.56629   0.58587
H            0.81176   1.44854  -0.73017
H            1.13249   2.08714   0.87671
H           -0.25725   1.04185   0.60742
