27
0.222
N           -3.74238   0.58407  -0.37072
C           -2.66841  -0.14403   0.36660
C           -1.44119  -0.47040  -0.50094
C           -0.48479  -1.48664   0.18583
C            0.31596  -0.85963   1.34097
C            1.10208   0.38591   0.87417
C            2.18620  -0.01539  -0.09795
O            3.45975   0.23488   0.25711
O            1.86904  -0.53823  -1.13969
C            0.15418   1.41752   0.22099
C           -0.64832   0.79299  -0.93448
H           -4.05614   0.05029  -1.19490
H           -3.42661   1.50770  -0.70056
H           -4.57024   0.74119   0.22421
H           -3.08786  -1.07436   0.76745
H           -2.36153   0.44025   1.23947
H           -1.82659  -0.94818  -1.41805
H            0.22194  -1.87560  -0.55973
H           -1.05197  -2.35632   0.54011
H            1.01777  -1.59490   1.75687
H           -0.35704  -0.59251   2.16354
H            1.60699   0.84696   1.73906
H            4.05105  -0.07183  -0.45175
H            0.74477   2.26752  -0.14603
H           -0.52619   1.83190   0.97319
H            0.05187   0.51729  -1.73469
H           -1.32377   1.53387  -1.37724
