19
 xtb: 6.5.1 (fef0646)
N           -1.53240316053508       -1.76687793831907       -1.14904978472116
C           -2.34738575322114       -1.13675272633671       -0.06964176704986
C           -2.23831844604812        0.38613112905304       -0.07015004411624
C           -0.84948006756382        0.86340161412521        0.16820850394626
C           -0.08215247544800        1.54531302711343       -0.71943965925122
C            1.21434240282732        1.86926184492760       -0.22134031315941
C            1.42685071542459        1.42714616333655        1.03836266577070
S            0.04846634540607        0.57919243746066        1.63102045194426
Cl           1.82600125888331       -1.49357347137011       -0.92321723955977
H           -1.86508957333344       -1.38624708450155       -2.08089211982322
H           -1.71070022184548       -2.78656775819281       -1.19043571387716
H           -0.56988114435233       -1.58385791630472       -1.05470059601461
H           -2.02487514690347       -1.53141630710428        0.89896332829471
H           -3.41860403431718       -1.43065699059520       -0.15100014139747
H           -2.89577284242910        0.82276191745192        0.70509058158521
H           -2.60105479557976        0.78678730020032       -1.01634568189284
H           -0.40020059117789        1.74932695279688       -1.72217150907283
H            1.97117660132875        2.34969345667375       -0.80975923256143
H            2.32458720918887        1.56774436650575        1.61367567131849
