19
 xtb: 6.5.1 (fef0646)
N           -0.74499465442662       -1.90514959128758        0.21858904274006
C           -1.63559414533036       -1.02565737933338       -0.59779989111465
C           -0.89861409843232        0.19730484704557       -1.15131282821974
C           -0.52375642201408        1.20481120231408       -0.11586238425932
C           -0.41689621551148        2.54206454923782       -0.32568913319273
C           -0.02589322013018        3.28128904613868        0.83252852419278
C            0.16583748937240        2.50769492685904        1.92388216792645
S           -0.15270982164946        0.84733556593133        1.54723555062352
Cl           1.72948493474745       -3.00089477671986       -1.62259303541269
H           -0.02370519183296       -2.27424907951926       -0.30592494997084
H           -1.33570972231077       -2.67596882108752        0.65423297451738
H           -0.40611106060126       -1.33675066052925        1.00888612850281
H           -2.52572428325635       -0.65654815462250       -0.01556148112401
H           -2.08783967782130       -1.59664468278378       -1.42219928710019
H           -1.49352509024401        0.69941028968946       -1.92427274400855
H            0.01022204182156       -0.14291718970042       -1.64684447471580
H           -0.63754904719138        3.00863753738718       -1.27328451263414
H            0.08029424610557        4.36065417510875        0.83978109144529
H            0.47199751400527        2.86091047647399        2.89446003126178
