 xtb: 6.5.1 (fef0646)
          01242317123D

 18 16  0     0  0            999 V2000
   -2.7579    0.3414   -0.3386 N   0  0  0  0  0  0  0  0  0  0  0  0
   -2.4048   -0.9162    0.3812 C   0  0  0  0  0  0  0  0  0  0  0  0
   -0.8982   -1.1110    0.5269 C   0  0  0  0  0  0  0  0  0  0  0  0
   -0.2411   -0.0877    1.4539 C   0  0  0  0  0  0  0  0  0  0  0  0
    1.2608   -0.2873    1.5838 C   0  0  0  0  0  0  0  0  0  0  0  0
    2.3749    0.0618   -0.2049 I   0  0  0  0  0  0  0  0  0  0  0  0
   -6.2589    0.5723   -0.6925 Cl  0  0  0  0  0  0  0  0  0  0  0  0
   -2.4314    1.1713    0.1738 H   0  0  0  0  0  0  0  0  0  0  0  0
   -3.7788    0.4360   -0.4626 H   0  0  0  0  0  0  0  0  0  0  0  0
   -2.3244    0.3640   -1.2743 H   0  0  0  0  0  0  0  0  0  0  0  0
   -2.8449   -1.7684   -0.1519 H   0  0  0  0  0  0  0  0  0  0  0  0
   -2.8745   -0.9173    1.3716 H   0  0  0  0  0  0  0  0  0  0  0  0
   -0.4281   -1.0604   -0.4614 H   0  0  0  0  0  0  0  0  0  0  0  0
   -0.6809   -2.1207    0.8965 H   0  0  0  0  0  0  0  0  0  0  0  0
   -0.7188   -0.1323    2.4421 H   0  0  0  0  0  0  0  0  0  0  0  0
   -0.4352    0.9255    1.0821 H   0  0  0  0  0  0  0  0  0  0  0  0
    1.4917   -1.3072    1.8971 H   0  0  0  0  0  0  0  0  0  0  0  0
    1.6908    0.3830    2.3318 H   0  0  0  0  0  0  0  0  0  0  0  0
  1  2  1  0  0  0  0
  2  3  1  0  0  0  0
  3  4  1  0  0  0  0
  4  5  1  0  0  0  0
  5  6  1  0  0  0  0
  1  8  1  0  0  0  0
  1  9  1  0  0  0  0
  1 10  1  0  0  0  0
  2 11  1  0  0  0  0
  2 12  1  0  0  0  0
  3 13  1  0  0  0  0
  3 14  1  0  0  0  0
  4 15  1  0  0  0  0
  4 16  1  0  0  0  0
  5 17  1  0  0  0  0
  5 18  1  0  0  0  0
M  END
