 xtb: 6.5.1 (fef0646)
          01242310103D

 18 16  0     0  0            999 V2000
    0.0532   -1.5260   -0.8085 N   0  0  0  0  0  0  0  0  0  0  0  0
   -0.7961   -1.8006    0.3821 C   0  0  0  0  0  0  0  0  0  0  0  0
   -1.3403   -0.5390    1.0501 C   0  0  0  0  0  0  0  0  0  0  0  0
   -2.2362    0.3232    0.1442 C   0  0  0  0  0  0  0  0  0  0  0  0
   -1.4709    1.3522   -0.6767 C   0  0  0  0  0  0  0  0  0  0  0  0
    2.3294    0.9571    0.0484 Cl  0  0  0  0  0  0  0  0  0  0  0  0
   -0.5073   -1.1592   -1.5932 H   0  0  0  0  0  0  0  0  0  0  0  0
    0.5334   -2.3754   -1.1490 H   0  0  0  0  0  0  0  0  0  0  0  0
    0.7812   -0.8204   -0.5847 H   0  0  0  0  0  0  0  0  0  0  0  0
   -0.2140   -2.3822    1.1088 H   0  0  0  0  0  0  0  0  0  0  0  0
   -1.6281   -2.4531    0.0899 H   0  0  0  0  0  0  0  0  0  0  0  0
   -0.5057    0.0719    1.4154 H   0  0  0  0  0  0  0  0  0  0  0  0
   -1.8958   -0.8275    1.9540 H   0  0  0  0  0  0  0  0  0  0  0  0
   -2.9852    0.8467    0.7561 H   0  0  0  0  0  0  0  0  0  0  0  0
   -2.8230   -0.3320   -0.5132 H   0  0  0  0  0  0  0  0  0  0  0  0
   -2.1366    1.9546   -1.3005 H   0  0  0  0  0  0  0  0  0  0  0  0
   -0.7403    0.8891   -1.3407 H   0  0  0  0  0  0  0  0  0  0  0  0
   -0.9204    2.0401   -0.0307 H   0  0  0  0  0  0  0  0  0  0  0  0
  1  2  1  0  0  0  0
  2  3  1  0  0  0  0
  3  4  1  0  0  0  0
  4  5  1  0  0  0  0
  1  7  1  0  0  0  0
  1  8  1  0  0  0  0
  1  9  1  0  0  0  0
  2 10  1  0  0  0  0
  2 11  1  0  0  0  0
  3 12  1  0  0  0  0
  3 13  1  0  0  0  0
  4 14  1  0  0  0  0
  4 15  1  0  0  0  0
  5 16  1  0  0  0  0
  5 17  1  0  0  0  0
  5 18  1  0  0  0  0
M  END
