 xtb: 6.5.1 (fef0646)
          01232320493D

 39 41  0     0  0            999 V2000
   14.4593    0.4766    0.9732 N   0  0  0  0  0  0  0  0  0  0  0  0
   14.3119    1.5002    2.0588 C   0  0  0  0  0  0  0  0  0  0  0  0
   14.0032    2.8544    1.4432 C   0  0  0  0  0  0  0  0  0  0  0  0
   13.7133    3.9172    2.5047 C   0  0  0  0  0  0  0  0  0  0  0  0
   13.0657    5.1527    1.8568 C   0  0  0  0  0  0  0  0  0  0  0  0
   11.8124    4.7935    1.2429 N   0  0  0  0  0  0  0  0  0  0  0  0
   11.5702    5.0772   -0.1738 C   0  0  0  0  0  0  0  0  0  0  0  0
   10.0103    4.7057   -0.3130 C   0  0  0  0  0  0  0  0  0  0  0  0
   10.2564    3.3116   -0.7461 C   0  0  0  0  0  0  0  0  0  0  0  0
   10.7608    3.1618   -2.0169 C   0  0  0  0  0  0  0  0  0  0  0  0
   12.1889    3.3527   -1.9803 C   0  0  0  0  0  0  0  0  0  0  0  0
   12.5201    4.3115   -1.0828 C   0  0  0  0  0  0  0  0  0  0  0  0
   10.6210    4.8887    1.9510 C   0  0  0  0  0  0  0  0  0  0  0  0
    9.5209    4.8655    1.0873 C   0  0  0  0  0  0  0  0  0  0  0  0
    8.2353    4.9278    1.5723 C   0  0  0  0  0  0  0  0  0  0  0  0
    8.0465    5.0246    2.9461 C   0  0  0  0  0  0  0  0  0  0  0  0
    9.1340    5.0427    3.8014 C   0  0  0  0  0  0  0  0  0  0  0  0
   10.4349    4.9704    3.3201 C   0  0  0  0  0  0  0  0  0  0  0  0
   14.6447   -0.4600    1.3530 H   0  0  0  0  0  0  0  0  0  0  0  0
   15.2315    0.7427    0.3481 H   0  0  0  0  0  0  0  0  0  0  0  0
   13.5950    0.4478    0.4141 H   0  0  0  0  0  0  0  0  0  0  0  0
   15.2371    1.5316    2.6362 H   0  0  0  0  0  0  0  0  0  0  0  0
   13.4988    1.1886    2.7160 H   0  0  0  0  0  0  0  0  0  0  0  0
   13.1144    2.7785    0.8107 H   0  0  0  0  0  0  0  0  0  0  0  0
   14.8383    3.1847    0.8227 H   0  0  0  0  0  0  0  0  0  0  0  0
   14.6282    4.2089    3.0196 H   0  0  0  0  0  0  0  0  0  0  0  0
   13.0175    3.5113    3.2393 H   0  0  0  0  0  0  0  0  0  0  0  0
   13.7371    5.5649    1.1010 H   0  0  0  0  0  0  0  0  0  0  0  0
   12.9152    5.9186    2.6260 H   0  0  0  0  0  0  0  0  0  0  0  0
   11.7204    6.1564   -0.3596 H   0  0  0  0  0  0  0  0  0  0  0  0
    9.5075    5.3159   -1.0602 H   0  0  0  0  0  0  0  0  0  0  0  0
   10.7623    2.7440    0.0360 H   0  0  0  0  0  0  0  0  0  0  0  0
   10.2312    3.5258   -2.8859 H   0  0  0  0  0  0  0  0  0  0  0  0
   12.8942    2.9957   -2.7198 H   0  0  0  0  0  0  0  0  0  0  0  0
   13.5345    4.6920   -1.0746 H   0  0  0  0  0  0  0  0  0  0  0  0
    7.3928    4.9097    0.8981 H   0  0  0  0  0  0  0  0  0  0  0  0
    7.0471    5.0880    3.3464 H   0  0  0  0  0  0  0  0  0  0  0  0
    8.9739    5.1199    4.8662 H   0  0  0  0  0  0  0  0  0  0  0  0
   11.2665    4.9949    4.0079 H   0  0  0  0  0  0  0  0  0  0  0  0
  1  2  1  0  0  0  0
  2  3  1  0  0  0  0
  3  4  1  0  0  0  0
  4  5  1  0  0  0  0
  5  6  1  0  0  0  0
  6  7  1  0  0  0  0
  7  8  1  0  0  0  0
  8  9  1  0  0  0  0
  9 10  2  0  0  0  0
 10 11  1  0  0  0  0
  7 12  1  0  0  0  0
 11 12  2  0  0  0  0
  6 13  1  0  0  0  0
  8 14  1  0  0  0  0
 13 14  4  0  0  0  0
 14 15  4  0  0  0  0
 15 16  4  0  0  0  0
 16 17  4  0  0  0  0
 13 18  4  0  0  0  0
 17 18  4  0  0  0  0
  1 19  1  0  0  0  0
  1 20  1  0  0  0  0
  1 21  1  0  0  0  0
  2 22  1  0  0  0  0
  2 23  1  0  0  0  0
  3 24  1  0  0  0  0
  3 25  1  0  0  0  0
  4 26  1  0  0  0  0
  4 27  1  0  0  0  0
  5 28  1  0  0  0  0
  5 29  1  0  0  0  0
  7 30  1  0  0  0  0
  8 31  1  0  0  0  0
  9 32  1  0  0  0  0
 10 33  1  0  0  0  0
 11 34  1  0  0  0  0
 12 35  1  0  0  0  0
 15 36  1  0  0  0  0
 16 37  1  0  0  0  0
 17 38  1  0  0  0  0
 18 39  1  0  0  0  0
M  CHG  1   1   1
M  END
