18
1.616
N           -2.84435   1.97657   0.22473
C           -1.85814   2.49433   1.21308
C           -0.48483   1.84765   1.06397
C           -0.47716   0.35769   1.40641
C            0.89289  -0.28219   1.23326
I            1.57140  -0.35123  -0.77502
Cl          -3.48865  -1.44044   0.69101
H           -3.75308   2.46385   0.29073
H           -3.02516   0.96879   0.36269
H           -2.49473   2.09505  -0.74329
H           -2.23638   2.33194   2.22958
H           -1.77619   3.58312   1.10015
H            0.24967   2.36533   1.69411
H           -0.12918   1.98560   0.03587
H           -1.19724  -0.17018   0.76862
H           -0.83852   0.21704   2.43520
H            0.90120  -1.31810   1.58376
H            1.65262   0.25794   1.80349
