35
0.201
N           -5.65490   0.92680  -1.63731
C           -6.07049  -0.04728  -0.58898
C           -5.32328   0.15531   0.72746
C           -3.84491  -0.06897   0.60459
C           -2.96614   1.00160   0.47681
C           -1.61169   0.79702   0.35065
C           -1.07465  -0.49977   0.34402
C            0.33406  -0.76127   0.22823
C            1.30677   0.18124   0.10573
C            2.71720  -0.07521   0.00201
C            3.60173   1.00320  -0.13266
C            4.96470   0.80757  -0.23353
F            5.78724   1.85607  -0.36424
C            5.47619  -0.48334  -0.19982
C            4.62558  -1.56275  -0.06690
C            3.26530  -1.36963   0.03264
C           -1.97091  -1.57283   0.46442
C           -3.32375  -1.35814   0.58932
H           -5.83984   1.89575  -1.33707
H           -6.16006   0.77520  -2.52412
H           -4.64598   0.84960  -1.83562
H           -5.90042  -1.06631  -0.95613
H           -7.15325   0.03580  -0.43034
H           -5.72087  -0.51266   1.50056
H           -5.50438   1.16973   1.09814
H           -3.35837   2.00517   0.48539
H           -0.95835   1.64759   0.26186
H            0.62634  -1.79586   0.24485
H            1.01404   1.21574   0.08413
H            3.22851   2.01187  -0.15971
H            6.54255  -0.61751  -0.27882
H            5.03152  -2.56235  -0.04054
H            2.61890  -2.22360   0.13728
H           -1.58606  -2.57940   0.46237
H           -3.99489  -2.19595   0.68403
