35
 xtb: 6.5.1 (fef0646)
N           -5.67671885005388        0.91278647438996       -1.64803468645522
C           -6.07750644391382       -0.05360952299551       -0.58660021306414
C           -5.32191240443106        0.15928750536696        0.72274475120934
C           -3.84308282516573       -0.06430613393736        0.60003867097953
C           -2.95406810470444        1.00968709269636        0.57648584972516
C           -1.59919545238313        0.80434625704537        0.45604367212045
C           -1.07208519434739       -0.49601121367119        0.35391995713717
C            0.33693390267569       -0.75856161243067        0.24313133914568
C            1.30591839381297        0.18098110259871        0.06859726376908
C            2.71786995875757       -0.07565501419024       -0.01458514661197
C            3.60050815574427        0.99975119296468       -0.18571085885316
C            4.96611601401928        0.80470371487181       -0.25172010173412
F            5.78759235239646        1.84953214323791       -0.42161911347609
C            5.48128697811047       -0.48319326062005       -0.15874800748756
C            4.63179273330028       -1.56009891403062        0.00154027988659
C            3.26955881477237       -1.36715050465478        0.07444787452443
C           -1.97753083801413       -1.57171993686055        0.38238774233220
C           -3.33121353309918       -1.35649914943133        0.49614033889948
H           -5.83688533384646        1.89296629092632       -1.33751777412365
H           -6.17571394403387        0.77485185899318       -2.52200798399492
H           -4.65468664261888        0.84025095527870       -1.84968836069095
H           -5.90321365525025       -1.06873112303363       -0.95408351436848
H           -7.15495307594915        0.03392788890083       -0.42719830376917
H           -5.71956528829209       -0.51009271074257        1.50110602890087
H           -5.50384416881741        1.17146750338769        1.09528736113096
H           -3.35284275303762        2.00795053115173        0.53709168340550
H           -0.95196620983404        1.65039244388174        0.31944086580250
H            0.62817723699234       -1.79453997710429        0.26396457017300
H            1.01217182708076        1.21475672256661        0.05121760997020
H            3.22723396912860        2.01010596886687       -0.19047006950015
H            6.54456516308637       -0.61737692052761       -0.25980200328124
H            5.03404151946952       -2.56096858405333       -0.00801771456705
H            2.62047058037949       -2.22226507545802        0.15660944290099
H           -1.59010349110307       -2.57985225164171        0.41858962682531
H           -3.99926358766180       -2.19626366617911        0.63505998129005
