21
 xtb: 6.5.1 (fef0646)
N           -5.52301209483780        0.13784674383966       -0.27656240294593
C           -4.08546898709960       -0.03706007481719        0.08483586742614
C           -3.13488442132974        0.53000232405484       -0.97852860932834
C           -1.68551952463866        0.34045535651310       -0.63211313306380
C           -1.06155874620720       -0.88403212281567       -0.84428162492819
C            0.26643214718409       -1.06634779444549       -0.50459252386497
C            0.98055285818901       -0.02446360474786        0.04373168819476
Br           2.78527627685298       -0.29135038042944        0.48555296584378
C            0.38200212417527        1.19516021121179        0.26396708503538
C           -0.94976637212772        1.37425571655645       -0.06577914270348
H           -5.76063285409269       -0.35312424434166       -1.09937914504248
H           -5.74147814028563        1.17888399383495       -0.45317330180739
H           -6.14854746671684       -0.12138234022508        0.50246170174088
H           -3.89183662706475       -1.03279471595267        0.34778571117220
H           -3.87310895052799        0.57665009385058        1.02839403200892
H           -3.32801516133837        1.52860488058776       -1.23897340042147
H           -3.35355895102516       -0.07211124416628       -1.92208308174843
H           -1.57712206838494       -1.70823378011768       -1.35769822528101
H            0.80075622696115       -1.99925123418890       -0.74570281302038
H            0.91118957203533        1.96542657296109        0.76307518386434
H           -1.46771378523664        2.26821702590082        0.16119231278407
