23
0.803
N            2.88287  -0.43376   0.38360
C            1.86636  -0.36037  -0.70526
C            0.86678   0.77934  -0.52187
C           -0.02166   0.65268   0.72029
C           -0.95416  -0.56455   0.72657
C           -2.01066  -0.57388  -0.38548
C           -3.02819   0.55294  -0.27900
H            3.39989   0.45357   0.46788
H            3.57621  -1.17631   0.20664
H            2.45246  -0.63079   1.29848
H            1.34031  -1.31896  -0.77649
H            2.39038  -0.24673  -1.66363
H            0.23509   0.86675  -1.41358
H            1.42319   1.72397  -0.47736
H           -0.62243   1.56280   0.83564
H            0.61625   0.63007   1.61196
H           -1.46738  -0.62606   1.69458
H           -0.35194  -1.47900   0.67169
H           -2.53958  -1.53681  -0.37554
H           -1.51637  -0.53872  -1.36349
H           -2.55764   1.53271  -0.37218
H           -3.54448   0.53067   0.68252
H           -3.79142   0.48740  -1.05815
