 xtb: 6.5.1 (fef0646)
          01242310103D

 23 22  0     0  0            999 V2000
    2.8829   -0.4338    0.3836 N   0  0  0  0  0  0  0  0  0  0  0  0
    1.8664   -0.3604   -0.7053 C   0  0  0  0  0  0  0  0  0  0  0  0
    0.8668    0.7793   -0.5219 C   0  0  0  0  0  0  0  0  0  0  0  0
   -0.0217    0.6527    0.7203 C   0  0  0  0  0  0  0  0  0  0  0  0
   -0.9542   -0.5645    0.7266 C   0  0  0  0  0  0  0  0  0  0  0  0
   -2.0107   -0.5739   -0.3855 C   0  0  0  0  0  0  0  0  0  0  0  0
   -3.0282    0.5530   -0.2790 C   0  0  0  0  0  0  0  0  0  0  0  0
    3.3999    0.4536    0.4679 H   0  0  0  0  0  0  0  0  0  0  0  0
    3.5762   -1.1763    0.2066 H   0  0  0  0  0  0  0  0  0  0  0  0
    2.4525   -0.6308    1.2985 H   0  0  0  0  0  0  0  0  0  0  0  0
    1.3403   -1.3190   -0.7765 H   0  0  0  0  0  0  0  0  0  0  0  0
    2.3904   -0.2467   -1.6636 H   0  0  0  0  0  0  0  0  0  0  0  0
    0.2351    0.8667   -1.4136 H   0  0  0  0  0  0  0  0  0  0  0  0
    1.4232    1.7240   -0.4774 H   0  0  0  0  0  0  0  0  0  0  0  0
   -0.6224    1.5628    0.8356 H   0  0  0  0  0  0  0  0  0  0  0  0
    0.6163    0.6301    1.6120 H   0  0  0  0  0  0  0  0  0  0  0  0
   -1.4674   -0.6260    1.6946 H   0  0  0  0  0  0  0  0  0  0  0  0
   -0.3519   -1.4790    0.6717 H   0  0  0  0  0  0  0  0  0  0  0  0
   -2.5396   -1.5368   -0.3755 H   0  0  0  0  0  0  0  0  0  0  0  0
   -1.5164   -0.5387   -1.3635 H   0  0  0  0  0  0  0  0  0  0  0  0
   -2.5576    1.5327   -0.3722 H   0  0  0  0  0  0  0  0  0  0  0  0
   -3.5445    0.5307    0.6825 H   0  0  0  0  0  0  0  0  0  0  0  0
   -3.7914    0.4874   -1.0581 H   0  0  0  0  0  0  0  0  0  0  0  0
  1  2  1  0  0  0  0
  2  3  1  0  0  0  0
  3  4  1  0  0  0  0
  4  5  1  0  0  0  0
  5  6  1  0  0  0  0
  6  7  1  0  0  0  0
  1  8  1  0  0  0  0
  1  9  1  0  0  0  0
  1 10  1  0  0  0  0
  2 11  1  0  0  0  0
  2 12  1  0  0  0  0
  3 13  1  0  0  0  0
  3 14  1  0  0  0  0
  4 15  1  0  0  0  0
  4 16  1  0  0  0  0
  5 17  1  0  0  0  0
  5 18  1  0  0  0  0
  6 19  1  0  0  0  0
  6 20  1  0  0  0  0
  7 21  1  0  0  0  0
  7 22  1  0  0  0  0
  7 23  1  0  0  0  0
M  CHG  1   1   1
M  END
