21
 xtb: 6.5.1 (fef0646)
N           -0.84270640165678       -0.74083515117008       -0.46932919689567
C            0.10168384094490       -0.58993943642171        0.67887919084957
C            1.41712894948787       -1.35155185325688        0.51536728921522
C            2.27245357684496       -0.89563943174636       -0.67024794090447
C            2.69135230552221        0.57745769352320       -0.62227272447545
C            3.55852894621699        0.92496485394606        0.57923220185340
Cl          -3.59612894977693        0.82342140032346        0.01071018000484
H           -0.97979884470739       -1.78814289723791       -0.65849702044674
H           -0.36044667271007       -0.41202292857167       -1.35423798953139
H           -1.68569657757409       -0.30405240206570       -0.35162515171042
H           -0.38348358167977       -0.95018009488185        1.58418653301317
H            0.32247314409467        0.45262925190357        0.83416214916975
H            1.24488617081375       -2.43636839742252        0.43058438156835
H            2.04121718774953       -1.26940288733732        1.44582772392186
H            1.76154138274860       -1.11295473366035       -1.59662366330912
H            3.21246145214574       -1.51575453243195       -0.72556796192156
H            1.80355019847017        1.20026115115743       -0.63702888153317
H            3.23857490877839        0.83571590258922       -1.54716376248451
H            3.88049760554256        1.97859667100839        0.56028490279552
H            4.46901031669536        0.32025057442600        0.61419673558353
H            3.03210673672895        0.77374288940171        1.51730140275010
