22
 xtb: 6.5.1 (fef0646)
N            1.77626914554679       -1.31844751120691       -0.60834030963702
C            0.36047011744810       -1.76193662297719       -0.39665341018696
C           -0.03549576922925       -2.80016360802720       -1.43837070028820
C           -0.57971088856331       -0.57940919763487       -0.37974363964912
C           -0.72674150599548        0.22577265154706       -1.50008888144758
C           -1.58320406050751        1.30901911843926       -1.48257441563741
C           -2.30294200560872        1.60279605000471       -0.34081990676286
C           -2.16261875798883        0.81260583960981        0.78309995611342
C           -1.30659089991195       -0.27066044845353        0.76367203740862
Cl           2.19938169955911        1.33776093748364        1.86879119898062
H            1.89810048702968       -0.88187439909846       -1.51656710368667
H            2.45064233804482       -2.07098176636376       -0.48731542860961
H            2.02228980271843       -0.57030906046832        0.11242362579418
H            0.31373169191813       -2.22230709930023        0.61561778011081
H            0.03246444860460       -2.37257347806294       -2.42492941413080
H           -1.04360190716389       -3.14419017835764       -1.26805432572922
H            0.64151025812769       -3.65625571360663       -1.39059175439316
H           -0.11628665960814        0.03739617190060       -2.35856063131964
H           -1.64334256692018        1.96178335348276       -2.33411463820743
H           -2.97757421291224        2.44776698285269       -0.32554246724994
H           -2.77797553251156        1.00481387884637        1.65646778099467
H           -1.24901357904523       -0.91821791487634        1.62729504727521
