22
 xtb: 6.5.1 (fef0646)
N            1.79098198426875       -1.27311189996779       -0.56010831509051
C            0.38225998220466       -1.73326806609124       -0.34794954128633
C           -0.01651142392415       -2.78268439518724       -1.37984750230695
C           -0.57002332896889       -0.56113598630783       -0.34669773058082
C           -0.63315743614639        0.30273231864843       -1.43085271854161
C           -1.50544663612526        1.37362328870215       -1.42760216309608
C           -2.32299894590345        1.59733593308921       -0.33578869358909
C           -2.26402839292137        0.74979283341315        0.75315690898197
C           -1.39413361933537       -0.32244798604317        0.74678474525749
Cl           2.17918070327412        1.24691992272850        1.68726146025909
H            1.90403977063727       -0.89091948778739       -1.51219841125828
H            2.45939837155284       -2.05138454630061       -0.45335204812295
H            2.01800188424072       -0.53845857465981        0.11173425313592
H            0.32068577280459       -2.21123184460019        0.63098975965585
H            0.03095960092215       -2.36741729507081       -2.40834381248642
H           -1.03588651951717       -3.14312351885023       -1.24580322391741
H            0.65094855060883       -3.64826039674604       -1.37618187470209
H           -0.06502150994986        0.07756830755987       -2.32629738310030
H           -1.60219975023509        1.99375640076005       -2.31007263179335
H           -2.98683180066799        2.44349904655572       -0.32714960648861
H           -2.82903024015170        0.97114488751683        1.63681972119424
H           -1.29332345836328       -0.94697717498710        1.61409736973852
