 xtb: 6.5.1 (fef0646)
          01242317153D

 22 21  0     0  0            999 V2000
    1.7831   -1.2849   -0.5673 N   0  0  0  0  0  0  0  0  0  0  0  0
    0.3715   -1.7468   -0.3723 C   0  0  0  0  0  0  0  0  0  0  0  0
   -0.0176   -2.7889   -1.4141 C   0  0  0  0  0  0  0  0  0  0  0  0
   -0.5783   -0.5724   -0.3649 C   0  0  0  0  0  0  0  0  0  0  0  0
   -0.6886    0.2581   -1.4695 C   0  0  0  0  0  0  0  0  0  0  0  0
   -1.5478    1.3392   -1.4565 C   0  0  0  0  0  0  0  0  0  0  0  0
   -2.3082    1.6041   -0.3357 C   0  0  0  0  0  0  0  0  0  0  0  0
   -2.2076    0.7859    0.7711 C   0  0  0  0  0  0  0  0  0  0  0  0
   -1.3483   -0.2947    0.7563 C   0  0  0  0  0  0  0  0  0  0  0  0
    2.1850    1.2810    1.7685 Cl  0  0  0  0  0  0  0  0  0  0  0  0
    1.9044   -0.8835   -1.5094 H   0  0  0  0  0  0  0  0  0  0  0  0
    2.4560   -2.0568   -0.4627 H   0  0  0  0  0  0  0  0  0  0  0  0
    2.0161   -0.5494    0.1175 H   0  0  0  0  0  0  0  0  0  0  0  0
    0.3157   -2.2176    0.6227 H   0  0  0  0  0  0  0  0  0  0  0  0
    0.0358   -2.3689   -2.4178 H   0  0  0  0  0  0  0  0  0  0  0  0
   -1.0376   -3.1431   -1.2602 H   0  0  0  0  0  0  0  0  0  0  0  0
    0.6487   -3.6515   -1.3842 H   0  0  0  0  0  0  0  0  0  0  0  0
   -0.0956    0.0536   -2.3448 H   0  0  0  0  0  0  0  0  0  0  0  0
   -1.6244    1.9768   -2.3227 H   0  0  0  0  0  0  0  0  0  0  0  0
   -2.9793    2.4480   -0.3248 H   0  0  0  0  0  0  0  0  0  0  0  0
   -2.8005    0.9904    1.6482 H   0  0  0  0  0  0  0  0  0  0  0  0
   -1.2699   -0.9316    1.6213 H   0  0  0  0  0  0  0  0  0  0  0  0
  1  2  1  0  0  0  0
  2  3  1  0  0  0  0
  2  4  1  0  0  0  0
  4  5  4  0  0  0  0
  5  6  4  0  0  0  0
  6  7  4  0  0  0  0
  7  8  4  0  0  0  0
  4  9  4  0  0  0  0
  8  9  4  0  0  0  0
  1 11  1  0  0  0  0
  1 12  1  0  0  0  0
  1 13  1  0  0  0  0
  2 14  1  0  0  0  0
  3 15  1  0  0  0  0
  3 16  1  0  0  0  0
  3 17  1  0  0  0  0
  5 18  1  0  0  0  0
  6 19  1  0  0  0  0
  7 20  1  0  0  0  0
  8 21  1  0  0  0  0
  9 22  1  0  0  0  0
M  END
