  42

 N         -4.7561725500        0.7562977990       -0.5678601682
 C         -3.5929420362       -0.0811403745       -0.8148279499
 C         -2.3532427067        0.7028825555       -1.2421740335
 C         -1.8841845414        1.7286573764       -0.2079561282
 C         -1.5079553616        1.1267061371        1.1492131484
 C         -0.3581942642        0.1169795572        1.0922570646
 C          0.9567206712        0.7191810113        0.5969123621
 C          2.1224877399       -0.2682264260        0.6405460743
 C          3.4315007539        0.3376450688        0.1350968133
 C          4.6130268423       -0.6277565824        0.2229951796
 C          5.9198833830       -0.0161452790       -0.2814797112
 C          7.1110485127       -0.9679716282       -0.1675702165
 C          8.4071098137       -0.3502717542       -0.6706936589
 Cl        -7.0104612180       -1.5904855445        0.1224599402
 H         -6.1078794096       -0.6421068553       -0.1537257622
 H         -4.9325919190        1.3348521998       -1.3816670410
 H         -4.5668512177        1.3999820838        0.1924493316
 H         -3.8575079981       -0.8230903168       -1.5791909140
 H         -3.3816922732       -0.6690740929        0.0856323795
 H         -2.5664523460        1.2097134375       -2.1918932762
 H         -1.5344636658        0.0096635052       -1.4684918765
 H         -2.6669058525        2.4854104228       -0.0709630140
 H         -1.0281651857        2.2879142706       -0.6050494016
 H         -2.3928125654        0.6562604150        1.5951260692
 H         -1.2369183985        1.9315061354        1.8446775363
 H         -0.6347864613       -0.7311061751        0.4556206744
 H         -0.1973006217       -0.3199604021        2.0862105132
 H          1.2033419544        1.6041868099        1.1956330568
 H          0.8359657325        1.0921307270       -0.4264440457
 H          1.8752830932       -1.1593713983        0.0512612279
 H          2.2573930764       -0.6334884073        1.6656485640
 H          3.6585237022        1.2475915855        0.7036412178
 H          3.3060831430        0.6746990341       -0.9010207681
 H          4.3884626751       -1.5395327592       -0.3433671532
 H          4.7389136252       -0.9611976309        1.2601400866
 H          6.1323812237        0.9060459603        0.2727160559
 H          5.7997596254        0.3013626553       -1.3243476457
 H          6.8922595687       -1.8910679680       -0.7198340072
 H          7.2238797427       -1.2838044506        0.8777520494
 H          8.3266422179       -0.0642479732       -1.7210080845
 H          9.2517392403       -1.0368057139       -0.5813054008
 H          8.6577601503        0.5525099888       -0.1106846086
          42
        -47.45919371
 N         -4.7355028704       -0.2360598565       -0.8350372486
 C         -4.4850993009       -0.7850395947        0.4885193527
 C         -3.8633080414       -2.1807576848        0.4667716126
 C         -2.5117696861       -2.2468905162       -0.2477462871
 C         -1.4319953144       -1.3799768106        0.4007118609
 C         -0.0729882980       -1.5102588944       -0.2870956770
 C          1.0076856839       -0.6409485812        0.3549739542
 C          2.3667091446       -0.7774882581       -0.3306990180
 C          3.4508526119        0.0875690011        0.3110797770
 C          4.8101936786       -0.0569893688       -0.3724869502
 C          5.8987900998        0.7998004297        0.2731466789
 C          7.2602829480        0.6482413803       -0.4061616472
 C          8.3415309830        1.4963301037        0.2464903982
 Cl        -6.1695304096        2.6408391349        0.0231886931
 H         -5.5939901159        1.4850591977       -0.3275884645
 H         -5.2952574862       -0.8902891496       -1.3713229183
 H         -3.8623313911       -0.1418447759       -1.3409797422
 H         -5.4330350562       -0.7988063319        1.0417853019
 H         -3.8459714388       -0.0900982716        1.0451301528
 H         -4.5669211958       -2.8744632640       -0.0105525201
 H         -3.7454352042       -2.5488881991        1.4934158645
 H         -2.6299956569       -1.9563551671       -1.2982366954
 H         -2.1599625379       -3.2858976470       -0.2832342767
 H         -1.3354516668       -1.6436650452        1.4606930382
 H         -1.7415062252       -0.3285396781        0.3949464096
 H         -0.1711370827       -1.2519173276       -1.3482248240
 H          0.2453661086       -2.5596589840       -0.2783720761
 H          1.1033528020       -0.8965572736        1.4171384465
 H          0.6920435559        0.4090986901        0.3427109219
 H          2.2710811142       -0.5206949595       -1.3925536081
 H          2.6801964835       -1.8283107478       -0.3197397533
 H          3.5439634431       -0.1668344771        1.3738037410
 H          3.1404558286        1.1393356010        0.2967947435
 H          4.7181869846        0.2019942876       -1.4341522039
 H          5.1165474373       -1.1099558638       -0.3625558024
 H          5.9871513430        0.5434225899        1.3357921218
 H          5.5951687504        1.8535478128        0.2596855545
 H          7.1660836991        0.9073615773       -1.4687818514
 H          7.5535605292       -0.4096513632       -0.3979757423
 H          9.3084855808        1.3814146814       -0.2482296367
 H          8.4758728286        1.2261220352        1.2954710973
 H          8.0826509361        2.5563675853        0.2184815548
          42
        -47.45942792
 N         -5.7028048010       -0.8771035051        0.5300694372
 C         -4.4757140572       -0.2014126927        0.1343150860
 C         -3.2225046693       -1.0356079883        0.3807679661
 C         -1.9381953070       -0.3191426298       -0.0366407338
 C         -0.6815979762       -1.1544729512        0.2091780255
 C          0.6026474826       -0.4371546677       -0.2067345451
 C          1.8591394884       -1.2723733252        0.0369446294
 C          3.1430430956       -0.5521388448       -0.3745022589
 C          4.3996280321       -1.3872205676       -0.1276885194
 C          5.6910352307       -0.7003594514       -0.5793645514
 C          6.0289819791        0.5562135250        0.2234811548
 C          7.3523433508        1.1963114785       -0.1978412924
 C          7.6787888964        2.4500496355        0.5995918140
 Cl        -7.9275558170        1.4590933011       -0.2867907263
 H         -7.0372707829        0.5165083793        0.0434759008
 H         -5.6510657244       -1.1231927300        1.5128724769
 H         -5.7768688042       -1.7579729538        0.0332019435
 H         -4.4043965938        0.7525351550        0.6705928684
 H         -4.5438766355        0.0712425723       -0.9255085502
 H         -3.3055219466       -1.9887489300       -0.1546231636
 H         -3.1666042936       -1.3084469781        1.4406763715
 H         -1.8574300569        0.6344275767        0.4991919779
 H         -1.9969395236       -0.0454012187       -1.0967482552
 H         -0.7618061546       -2.1074461988       -0.3274244233
 H         -0.6233934039       -1.4292229729        1.2693003160
 H          0.6832388717        0.5149977942        0.3310964371
 H          0.5437443451       -0.1608106175       -1.2663803057
 H          1.7799797669       -2.2234302771       -0.5033087716
 H          1.9165352637       -1.5510636781        1.0959327385
 H          3.2129110101        0.3994222058        0.1648509707
 H          3.0869421508       -0.2758284446       -1.4342637143
 H          4.2907255068       -2.3529633502       -0.6378837971
 H          4.4694642766       -1.6340539916        0.9385581843
 H          5.6177718849       -0.4447435109       -1.6432521826
 H          6.5318414617       -1.4025829429       -0.5115982276
 H          6.0622087059        0.3120445077        1.2921269298
 H          5.2231305106        1.2925575607        0.1247532667
 H          7.3174100819        1.4286469356       -1.2702091757
 H          8.1607180117        0.4608737260       -0.0938374418
 H          7.7490635761        2.2320371016        1.6668556443
 H          6.9036692022        3.2087745270        0.4773370737
 H          8.6268682890        2.8972321710        0.2928151279
