  42

 N          2.7198865790        1.7972137296        1.8885400744
 C          4.1344901781        1.8968567216        2.2369454279
 C          4.4909219353        1.3202491994        3.6110632523
 C          4.1796179034       -0.1705591652        3.7674434688
 C          4.8994518878       -1.0881055777        2.7759817901
 C          6.4260421304       -1.0050892584        2.8135547681
 C          7.0227349578       -1.3969451093        4.1635697755
 C          8.5454771521       -1.4930816079        4.1046695701
 C          9.1459166996       -1.8887879985        5.4512326663
 C         10.6664719606       -2.0115102512        5.3921215820
 C         11.2576658790       -2.4276103852        6.7366144516
 C         12.7778364721       -2.5585213226        6.6862980069
 C         13.3530141518       -2.9810702205        8.0326006357
 Cl         2.1849149590        3.0406689000       -0.7075169430
 H          2.4428693118        2.4623788096        0.5091073043
 H          2.1452858748        2.2583123711        2.5866510889
 H          2.4339414875        0.8261166713        1.8254815432
 H          4.4011589478        2.9561574824        2.2127515490
 H          4.7015951151        1.3915016766        1.4541125130
 H          3.9368723278        1.8703439313        4.3776326485
 H          5.5519824278        1.4934701680        3.7910475771
 H          3.1023680406       -0.3302215393        3.6625117832
 H          4.4414710077       -0.4682024002        4.7840939746
 H          4.5642729260       -0.8658942330        1.7604072969
 H          4.6014939929       -2.1166788531        2.9950395701
 H          6.7525025872        0.0024202949        2.5498380805
 H          6.8184401085       -1.6809740571        2.0496319517
 H          6.6141325665       -2.3626830583        4.4710508671
 H          6.7450090162       -0.6619921192        4.9213388318
 H          8.9574857737       -0.5302050771        3.7931587039
 H          8.8316097067       -2.2319611990        3.3524274635
 H          8.7206675513       -2.8445292777        5.7671745783
 H          8.8732708859       -1.1432811425        6.2022314676
 H         11.0954837780       -1.0535942723        5.0883342400
 H         10.9394168430       -2.7493906231        4.6338471819
 H         10.8249636542       -3.3844264308        7.0390618066
 H         10.9853114842       -1.6889443746        7.4944783462
 H         13.2130658348       -1.6015064713        6.3893793697
 H         13.0514352307       -3.2951531436        5.9272708698
 H         13.1054510033       -2.2497147634        8.7992206274
 H         14.4356984771       -3.0680743295        7.9781020153
 H         12.9459511924       -3.9434916938        8.3354482235
