 xtb: 6.5.1 (fef0646)
          01242317143D

 29 29  0     0  0            999 V2000
    2.1863   -0.6673   -1.8133 N   0  0  0  0  0  0  0  0  0  0  0  0
    2.6672   -1.7024   -0.8635 C   0  0  0  0  0  0  0  0  0  0  0  0
    2.1454   -1.4768    0.5502 C   0  0  0  0  0  0  0  0  0  0  0  0
    0.7233   -1.5846    0.6299 O   0  0  0  0  0  0  0  0  0  0  0  0
   -0.0245   -0.4213    0.4601 C   0  0  0  0  0  0  0  0  0  0  0  0
    0.4818    0.8595    0.3277 C   0  0  0  0  0  0  0  0  0  0  0  0
   -0.3535    1.9622    0.1633 C   0  0  0  0  0  0  0  0  0  0  0  0
   -1.7099    1.8161    0.1273 C   0  0  0  0  0  0  0  0  0  0  0  0
   -2.2920    0.5379    0.2552 C   0  0  0  0  0  0  0  0  0  0  0  0
   -3.6910    0.3434    0.2180 C   0  0  0  0  0  0  0  0  0  0  0  0
   -4.2226   -0.9061    0.3412 C   0  0  0  0  0  0  0  0  0  0  0  0
   -3.3878   -2.0165    0.5071 C   0  0  0  0  0  0  0  0  0  0  0  0
   -2.0326   -1.8594    0.5471 C   0  0  0  0  0  0  0  0  0  0  0  0
   -1.4496   -0.5858    0.4235 C   0  0  0  0  0  0  0  0  0  0  0  0
    3.4586    2.3549   -0.4917 Cl  0  0  0  0  0  0  0  0  0  0  0  0
    1.1554   -0.6357   -1.8148 H   0  0  0  0  0  0  0  0  0  0  0  0
    2.5038   -0.8428   -2.7772 H   0  0  0  0  0  0  0  0  0  0  0  0
    2.5272    0.2645   -1.5312 H   0  0  0  0  0  0  0  0  0  0  0  0
    3.7634   -1.7284   -0.8679 H   0  0  0  0  0  0  0  0  0  0  0  0
    2.3403   -2.6893   -1.2097 H   0  0  0  0  0  0  0  0  0  0  0  0
    2.4750   -0.5194    0.9615 H   0  0  0  0  0  0  0  0  0  0  0  0
    2.5449   -2.2397    1.2296 H   0  0  0  0  0  0  0  0  0  0  0  0
    1.5429    1.0231    0.3351 H   0  0  0  0  0  0  0  0  0  0  0  0
    0.0802    2.9438    0.0612 H   0  0  0  0  0  0  0  0  0  0  0  0
   -2.3490    2.6730   -0.0004 H   0  0  0  0  0  0  0  0  0  0  0  0
   -4.3331    1.1982    0.0894 H   0  0  0  0  0  0  0  0  0  0  0  0
   -5.2915   -1.0425    0.3107 H   0  0  0  0  0  0  0  0  0  0  0  0
   -3.8194   -2.9995    0.6027 H   0  0  0  0  0  0  0  0  0  0  0  0
   -1.3844   -2.7097    0.6732 H   0  0  0  0  0  0  0  0  0  0  0  0
  1  2  1  0  0  0  0
  2  3  1  0  0  0  0
  3  4  1  0  0  0  0
  4  5  1  0  0  0  0
  5  6  4  0  0  0  0
  6  7  4  0  0  0  0
  7  8  2  0  0  0  0
  8  9  4  0  0  0  0
  9 10  4  0  0  0  0
 10 11  2  0  0  0  0
 11 12  4  0  0  0  0
 12 13  2  0  0  0  0
  5 14  4  0  0  0  0
  9 14  4  0  0  0  0
 13 14  4  0  0  0  0
  1 16  1  0  0  0  0
  1 17  1  0  0  0  0
  1 18  1  0  0  0  0
  2 19  1  0  0  0  0
  2 20  1  0  0  0  0
  3 21  1  0  0  0  0
  3 22  1  0  0  0  0
  6 23  1  0  0  0  0
  7 24  1  0  0  0  0
  8 25  1  0  0  0  0
 10 26  1  0  0  0  0
 11 27  1  0  0  0  0
 12 28  1  0  0  0  0
 13 29  1  0  0  0  0
M  END
