 xtb: 6.5.1 (fef0646)
          01242314573D

 21 21  0     0  0            999 V2000
    2.9512   -2.4909   -0.4008 N   0  0  0  0  0  0  0  0  0  0  0  0
    2.6014   -1.0586   -0.2417 C   0  0  0  0  0  0  0  0  0  0  0  0
    3.0577   -0.5588    1.1290 C   0  0  0  0  0  0  0  0  0  0  0  0
    4.5607   -0.5643    1.2375 C   0  0  0  0  0  0  0  0  0  0  0  0
    5.3054    0.4584    0.6609 C   0  0  0  0  0  0  0  0  0  0  0  0
    6.6866    0.4510    0.7347 C   0  0  0  0  0  0  0  0  0  0  0  0
    7.3429   -0.5822    1.3849 C   0  0  0  0  0  0  0  0  0  0  0  0
    6.6107   -1.6055    1.9621 C   0  0  0  0  0  0  0  0  0  0  0  0
    5.2277   -1.5985    1.8842 C   0  0  0  0  0  0  0  0  0  0  0  0
    2.7301   -2.8229   -1.3462 H   0  0  0  0  0  0  0  0  0  0  0  0
    2.4356   -3.0609    0.2801 H   0  0  0  0  0  0  0  0  0  0  0  0
    3.9569   -2.6152   -0.2267 H   0  0  0  0  0  0  0  0  0  0  0  0
    1.5237   -0.9375   -0.3423 H   0  0  0  0  0  0  0  0  0  0  0  0
    3.0973   -0.4821   -1.0224 H   0  0  0  0  0  0  0  0  0  0  0  0
    2.6264   -1.1764    1.9167 H   0  0  0  0  0  0  0  0  0  0  0  0
    2.6921    0.4582    1.2656 H   0  0  0  0  0  0  0  0  0  0  0  0
    4.8030    1.2739    0.1621 H   0  0  0  0  0  0  0  0  0  0  0  0
    7.2560    1.2544    0.2907 H   0  0  0  0  0  0  0  0  0  0  0  0
    8.4211   -0.5833    1.4482 H   0  0  0  0  0  0  0  0  0  0  0  0
    7.1195   -2.4078    2.4757 H   0  0  0  0  0  0  0  0  0  0  0  0
    4.6709   -2.3921    2.3605 H   0  0  0  0  0  0  0  0  0  0  0  0
  1  2  1  0  0  0  0
  2  3  1  0  0  0  0
  3  4  1  0  0  0  0
  4  5  4  0  0  0  0
  5  6  4  0  0  0  0
  6  7  4  0  0  0  0
  7  8  4  0  0  0  0
  4  9  4  0  0  0  0
  8  9  4  0  0  0  0
  1 10  1  0  0  0  0
  1 11  1  0  0  0  0
  1 12  1  0  0  0  0
  2 13  1  0  0  0  0
  2 14  1  0  0  0  0
  3 15  1  0  0  0  0
  3 16  1  0  0  0  0
  5 17  1  0  0  0  0
  6 18  1  0  0  0  0
  7 19  1  0  0  0  0
  8 20  1  0  0  0  0
  9 21  1  0  0  0  0
M  CHG  1   1   1
M  END
