  15

 N         -1.8042537673        0.0029246222        0.2294166189
 C         -0.4789357241        0.0087802962       -0.4570904469
 C          0.5101857280       -1.0877933390        0.0120668931
 C          1.6116942880       -0.0059480310        0.1120038283
 C          0.5169365515        1.0849734895        0.0434215814
 H         -2.3565006041       -0.8218187624       -0.0438820278
 H         -2.3476844246        0.8421642869       -0.0154954303
 H         -1.6958140905       -0.0155556189        1.2522901515
 H         -0.5943482294        0.0251127159       -1.5563323902
 H          0.7060823547       -1.8756786425       -0.7286929279
 H          0.2298270263       -1.5272746702        0.9772834722
 H          2.2953346628        0.0037538645       -0.7485033375
 H          2.1831098241       -0.0205413983        1.0513836416
 H          0.7170692011        1.8926441268       -0.6745469175
 H          0.2390751072        1.4983652073        1.0209183980
          15
        -16.13197960
 N         -1.8090872776       -0.0000469215        0.1948973452
 C         -0.4715695534       -0.0005146615       -0.4685460670
 C          0.5132119090       -1.0865932695        0.0325856803
 C          1.6091656647        0.0005111761        0.1355922973
 C          0.5124170999        1.0864388945        0.0322072926
 H         -1.7180377423        0.0010597767        1.2201022877
 H         -2.3531859203       -0.8318491391       -0.0721259994
 H         -2.3523293315        0.8326002595       -0.0730646506
 H         -0.5680318874       -0.0013467167       -1.5697372352
 H          0.7244097576       -1.8842593405       -0.6932439284
 H          0.2180360972       -1.5135643438        0.9990192020
 H          2.3072550370        0.0009900359       -0.7132242614
 H          2.1646798487        0.0014975256        1.0845095519
 H          0.7219065566        1.8843402742       -0.6939566741
 H          0.2171845291        1.5130649325        0.9988838124
