21
0.578
N           -2.42938  -0.00011   0.10080
C           -0.98732  -0.00000  -0.30747
C           -0.26122   1.26582   0.18817
C            1.22067   1.27164  -0.23074
C            1.94499   0.00007   0.24825
C            1.22078  -1.27156  -0.23070
C           -0.26114  -1.26580   0.18823
H           -2.51897   0.00061   1.12591
H           -2.92170  -0.83177  -0.25432
H           -2.92223   0.83075  -0.25580
H           -0.95130  -0.00003  -1.41000
H           -0.33701   1.31100   1.27966
H           -0.77656   2.16257  -0.17799
H            1.72493   2.16969   0.15168
H            1.29140   1.34258  -1.32265
H            1.99754   0.00008   1.34349
H            2.98949   0.00011  -0.09273
H            1.72510  -2.16942   0.15192
H            1.29164  -1.34291  -1.32258
H           -0.33689  -1.31107   1.27974
H           -0.77642  -2.16256  -0.17796
