15
1.607
N            0.41515  -0.34680   0.52804
C            1.13962   0.13613  -0.67925
C            2.65504   0.12192  -0.49847
C            3.13603   1.09987   0.56127
Cl          -3.03133  -0.40227  -0.02460
H           -0.60910  -0.37394   0.38005
H            0.59285   0.26378   1.34610
H            0.71838  -1.29929   0.78512
H            0.80582   1.15169  -0.92512
H            0.85505  -0.48227  -1.54037
H            3.14582   0.34346  -1.45680
H            2.97643  -0.89597  -0.24119
H            2.82269   2.12012   0.32856
H            4.22554   1.10434   0.65091
H            2.73246   0.85551   1.54610
