 xtb: 6.5.1 (fef0646)
          01242310043D

 15 13  0     0  0            999 V2000
    0.4152   -0.3468    0.5280 N   0  0  0  0  0  0  0  0  0  0  0  0
    1.1396    0.1361   -0.6793 C   0  0  0  0  0  0  0  0  0  0  0  0
    2.6550    0.1219   -0.4985 C   0  0  0  0  0  0  0  0  0  0  0  0
    3.1360    1.0999    0.5613 C   0  0  0  0  0  0  0  0  0  0  0  0
   -3.0313   -0.4023   -0.0246 Cl  0  0  0  0  0  0  0  0  0  0  0  0
   -0.6091   -0.3739    0.3801 H   0  0  0  0  0  0  0  0  0  0  0  0
    0.5929    0.2638    1.3461 H   0  0  0  0  0  0  0  0  0  0  0  0
    0.7184   -1.2993    0.7851 H   0  0  0  0  0  0  0  0  0  0  0  0
    0.8058    1.1517   -0.9251 H   0  0  0  0  0  0  0  0  0  0  0  0
    0.8550   -0.4823   -1.5404 H   0  0  0  0  0  0  0  0  0  0  0  0
    3.1458    0.3434   -1.4568 H   0  0  0  0  0  0  0  0  0  0  0  0
    2.9764   -0.8960   -0.2412 H   0  0  0  0  0  0  0  0  0  0  0  0
    2.8227    2.1201    0.3285 H   0  0  0  0  0  0  0  0  0  0  0  0
    4.2255    1.1043    0.6509 H   0  0  0  0  0  0  0  0  0  0  0  0
    2.7325    0.8555    1.5461 H   0  0  0  0  0  0  0  0  0  0  0  0
  1  2  1  0  0  0  0
  2  3  1  0  0  0  0
  3  4  1  0  0  0  0
  1  6  1  0  0  0  0
  1  7  1  0  0  0  0
  1  8  1  0  0  0  0
  2  9  1  0  0  0  0
  2 10  1  0  0  0  0
  3 11  1  0  0  0  0
  3 12  1  0  0  0  0
  4 13  1  0  0  0  0
  4 14  1  0  0  0  0
  4 15  1  0  0  0  0
M  END
