 xtb: 6.5.1 (fef0646)
          01242310103D

 18 16  0     0  0            999 V2000
    0.2234   -0.2664   -0.5856 N   0  0  0  0  0  0  0  0  0  0  0  0
   -0.5447   -0.3115    0.6889 C   0  0  0  0  0  0  0  0  0  0  0  0
   -2.0538   -0.2831    0.4662 C   0  0  0  0  0  0  0  0  0  0  0  0
   -2.5537    1.0323   -0.1313 C   0  0  0  0  0  0  0  0  0  0  0  0
   -4.0647    1.0612   -0.3043 C   0  0  0  0  0  0  0  0  0  0  0  0
    3.6560   -0.4942    0.0040 Cl  0  0  0  0  0  0  0  0  0  0  0  0
    1.2436   -0.3361   -0.4257 H   0  0  0  0  0  0  0  0  0  0  0  0
    0.0524    0.6122   -1.0988 H   0  0  0  0  0  0  0  0  0  0  0  0
   -0.0493   -1.0464   -1.2116 H   0  0  0  0  0  0  0  0  0  0  0  0
   -0.2484    0.5302    1.3262 H   0  0  0  0  0  0  0  0  0  0  0  0
   -0.2622   -1.2143    1.2460 H   0  0  0  0  0  0  0  0  0  0  0  0
   -2.5784   -0.4701    1.4124 H   0  0  0  0  0  0  0  0  0  0  0  0
   -2.3414   -1.1138   -0.1901 H   0  0  0  0  0  0  0  0  0  0  0  0
   -2.0639    1.2076   -1.0978 H   0  0  0  0  0  0  0  0  0  0  0  0
   -2.2300    1.8660    0.5062 H   0  0  0  0  0  0  0  0  0  0  0  0
   -4.4120    2.0053   -0.7322 H   0  0  0  0  0  0  0  0  0  0  0  0
   -4.5751    0.9274    0.6522 H   0  0  0  0  0  0  0  0  0  0  0  0
   -4.4024    0.2584   -0.9636 H   0  0  0  0  0  0  0  0  0  0  0  0
  1  2  1  0  0  0  0
  2  3  1  0  0  0  0
  3  4  1  0  0  0  0
  4  5  1  0  0  0  0
  1  7  1  0  0  0  0
  1  8  1  0  0  0  0
  1  9  1  0  0  0  0
  2 10  1  0  0  0  0
  2 11  1  0  0  0  0
  3 12  1  0  0  0  0
  3 13  1  0  0  0  0
  4 14  1  0  0  0  0
  4 15  1  0  0  0  0
  5 16  1  0  0  0  0
  5 17  1  0  0  0  0
  5 18  1  0  0  0  0
M  END
