17
 xtb: 6.5.1 (fef0646)
N           -1.76220727821269       -1.69991049466656       -0.78809255018986
C           -1.94285814462344       -0.79647549083384        0.39192213164152
C           -2.19020173557056        0.66402368084329        0.01333327087354
C           -1.02338763997693        1.36288175922657       -0.70295737642747
C            0.24190325811199        1.49793584463565        0.13668942819783
Br           1.21969559451844       -0.15536583968638        0.15662893208874
H           -1.06336637281489       -1.46994943319510       -1.43618473020633
H           -2.72215724657815       -1.61493909263412       -1.40492989736139
H           -1.77421088170516       -2.69744707342275       -0.57563306167812
H           -1.00906253319342       -0.94057066021663        0.95377167753496
H           -2.73337153435779       -1.19761639075325        1.02611541357268
H           -2.37073538385370        1.20185684010153        0.96870935609963
H           -3.09504458424142        0.72189409643405       -0.54107392203857
H           -1.37421994787710        2.33469115937966       -1.04025651061456
H           -0.81201921852574        0.79950558955849       -1.64001008057552
H            0.06075745907657        1.86404785367637        1.09676204405270
H            0.93605515014592        2.22133410934906       -0.38522389316797
