17
 xtb: 6.5.1 (fef0646)
N           -3.55730776455143        0.88774980185625       -0.16666579070453
C           -2.49269682641510       -0.09920680963170       -0.52229691482359
C           -1.63460901154109       -0.49489647358181        0.68042449706928
C           -0.57577575690119       -1.56984732322147        0.38119191891619
C            0.51576667183447       -1.13286210590507       -0.58541109949693
Br           1.44961843536160        0.41891369469526        0.03404285145752
H           -4.22766332291030        0.48261934840223        0.54976386092265
H           -4.17610515764558        1.09648237063817       -0.98997348962784
H           -3.19788123254608        1.73090301131863        0.18922379537969
H           -1.93089544374466        0.28930752895228       -1.33793740195440
H           -2.99866915505770       -1.02987074471504       -0.91488216699450
H           -2.28169424991104       -0.80360381415043        1.49823589501510
H           -1.15709672298202        0.44205328793278        1.04153966508989
H           -1.08190480894918       -2.44205613753254       -0.00649809059225
H           -0.10364256349023       -1.85264517959940        1.31270193546799
H            0.07634429541076       -0.81241647450572       -1.56874001362860
H            1.21370816267238       -1.90529674598520       -0.79948888509000
