36
0.748
N           -4.34212   0.09095  -0.96499
C           -4.60336   0.65557   0.38902
C           -3.67617   1.82406   0.71477
C           -2.22968   1.42603   0.72911
C           -1.40708   1.68686  -0.35747
C           -0.08831   1.28617  -0.35948
C            0.45498   0.60462   0.73040
C            1.84321   0.16125   0.76697
C            2.78687   0.48886  -0.12750
C            4.17478   0.04364  -0.09140
C            4.62708  -0.93292   0.79853
C            5.94746  -1.32983   0.80157
C            6.84536  -0.76422  -0.08221
C            6.41770   0.20044  -0.97289
C            5.09839   0.59941  -0.97914
C           -0.38138   0.33762   1.81497
C           -1.69896   0.74075   1.81186
Cl          -6.46181  -2.63689  -1.58185
H           -4.95837  -0.71167  -1.17407
H           -3.36531  -0.23372  -1.04291
H           -4.49031   0.80110  -1.69552
H           -4.47761  -0.13212   1.14102
H           -5.65277   0.96736   0.46037
H           -3.93584   2.26339   1.68497
H           -3.82297   2.62488  -0.01789
H           -1.81320   2.20629  -1.20932
H            0.52413   1.49201  -1.21963
H            2.11629  -0.46465   1.59761
H            2.52370   1.14750  -0.93580
H            3.93671  -1.39137   1.48447
H            6.28021  -2.08567   1.49482
H            7.87737  -1.07621  -0.07785
H            7.11712   0.64226  -1.66434
H            4.76771   1.35298  -1.67429
H            0.01657  -0.19167   2.66452
H           -2.33271   0.52266   2.65507
