36
 xtb: 6.5.1 (fef0646)
N           -4.36927660308451        0.05974574903027       -0.96038792845304
C           -4.60826967505502        0.64615907619595        0.38920708902378
C           -3.67833516667081        1.81855366192834        0.69740574155228
C           -2.23131686914169        1.42265830460266        0.71871162705806
C           -1.41342079228780        1.65370132956006       -0.37848577281089
C           -0.09631797212715        1.24691179013355       -0.37811262459625
C            0.44888333055439        0.58892830533771        0.72506976698094
C            1.83345510614136        0.13160748163717        0.75629258359537
C            2.79279700565944        0.51588181841650       -0.10039338331907
C            4.17721595142458        0.05778222751229       -0.07802772210092
C            4.62495562537691       -0.94189852554858        0.78893648284417
C            5.94238022664390       -1.34862693902788        0.78003455604763
C            6.84216756263199       -0.77088993398185       -0.09403938357877
C            6.41939212386004        0.21698466613210       -0.96182685265131
C            5.10328328431833        0.62708014550540       -0.95475234940061
C           -0.38131754187452        0.35361290717807        1.82169054938684
C           -1.69665596860584        0.76484720093816        1.81685240380744
Cl          -6.41978606705234       -2.58330334932380       -1.56021573991484
H           -4.96909793511588       -0.72100075987880       -1.16840580804214
H           -3.37384365793229       -0.24469935551328       -1.04435974837684
H           -4.49888418227978        0.79015402842259       -1.69640552139295
H           -4.47739518653453       -0.13242614986941        1.14336978064694
H           -5.65384588491924        0.96545863687182        0.46256451071101
H           -3.93665506780761        2.26553838713104        1.67826490889600
H           -3.82364404921389        2.62036155702361       -0.02609856130637
H           -1.81610735900316        2.18971893039406       -1.21914609427697
H            0.52042862170326        1.47095381909791       -1.22840197648917
H            2.10737223534166       -0.49178163590112        1.58250447262134
H            2.53039198683107        1.17535295603632       -0.91332857325671
H            3.93613750646822       -1.39621102854682        1.48019984984826
H            6.27764311624465       -2.09604662654964        1.48373778888949
H            7.87576645493493       -1.08043967665666       -0.08406597920460
H            7.11803354766224        0.65001189678545       -1.65881502758626
H            4.77040790641306        1.36649181559393       -1.66186831974666
H            0.01744274082444       -0.18125404772933        2.66967518340819
H           -2.33087010499708        0.53694056523693        2.65928020243047
