 xtb: 6.5.1 (fef0646)
          01242317013D

 36 36  0     0  0            999 V2000
   -4.3421    0.0910   -0.9650 N   0  0  0  0  0  0  0  0  0  0  0  0
   -4.6034    0.6556    0.3890 C   0  0  0  0  0  0  0  0  0  0  0  0
   -3.6762    1.8241    0.7148 C   0  0  0  0  0  0  0  0  0  0  0  0
   -2.2297    1.4260    0.7291 C   0  0  0  0  0  0  0  0  0  0  0  0
   -1.4071    1.6869   -0.3575 C   0  0  0  0  0  0  0  0  0  0  0  0
   -0.0883    1.2862   -0.3595 C   0  0  0  0  0  0  0  0  0  0  0  0
    0.4550    0.6046    0.7304 C   0  0  0  0  0  0  0  0  0  0  0  0
    1.8432    0.1612    0.7670 C   0  0  0  0  0  0  0  0  0  0  0  0
    2.7869    0.4888   -0.1275 C   0  0  0  0  0  0  0  0  0  0  0  0
    4.1748    0.0436   -0.0914 C   0  0  0  0  0  0  0  0  0  0  0  0
    4.6271   -0.9329    0.7985 C   0  0  0  0  0  0  0  0  0  0  0  0
    5.9475   -1.3299    0.8016 C   0  0  0  0  0  0  0  0  0  0  0  0
    6.8454   -0.7643   -0.0822 C   0  0  0  0  0  0  0  0  0  0  0  0
    6.4177    0.2004   -0.9729 C   0  0  0  0  0  0  0  0  0  0  0  0
    5.0984    0.5994   -0.9792 C   0  0  0  0  0  0  0  0  0  0  0  0
   -0.3814    0.3376    1.8150 C   0  0  0  0  0  0  0  0  0  0  0  0
   -1.6989    0.7408    1.8119 C   0  0  0  0  0  0  0  0  0  0  0  0
   -6.4618   -2.6369   -1.5818 Cl  0  0  0  0  0  0  0  0  0  0  0  0
   -4.9584   -0.7116   -1.1741 H   0  0  0  0  0  0  0  0  0  0  0  0
   -3.3653   -0.2337   -1.0429 H   0  0  0  0  0  0  0  0  0  0  0  0
   -4.4903    0.8011   -1.6955 H   0  0  0  0  0  0  0  0  0  0  0  0
   -4.4776   -0.1321    1.1410 H   0  0  0  0  0  0  0  0  0  0  0  0
   -5.6528    0.9674    0.4604 H   0  0  0  0  0  0  0  0  0  0  0  0
   -3.9358    2.2634    1.6850 H   0  0  0  0  0  0  0  0  0  0  0  0
   -3.8230    2.6249   -0.0179 H   0  0  0  0  0  0  0  0  0  0  0  0
   -1.8132    2.2063   -1.2093 H   0  0  0  0  0  0  0  0  0  0  0  0
    0.5241    1.4920   -1.2196 H   0  0  0  0  0  0  0  0  0  0  0  0
    2.1163   -0.4647    1.5976 H   0  0  0  0  0  0  0  0  0  0  0  0
    2.5237    1.1475   -0.9358 H   0  0  0  0  0  0  0  0  0  0  0  0
    3.9367   -1.3914    1.4845 H   0  0  0  0  0  0  0  0  0  0  0  0
    6.2802   -2.0857    1.4948 H   0  0  0  0  0  0  0  0  0  0  0  0
    7.8774   -1.0763   -0.0779 H   0  0  0  0  0  0  0  0  0  0  0  0
    7.1171    0.6422   -1.6644 H   0  0  0  0  0  0  0  0  0  0  0  0
    4.7677    1.3530   -1.6743 H   0  0  0  0  0  0  0  0  0  0  0  0
    0.0166   -0.1917    2.6645 H   0  0  0  0  0  0  0  0  0  0  0  0
   -2.3327    0.5227    2.6551 H   0  0  0  0  0  0  0  0  0  0  0  0
  1  2  1  0  0  0  0
  2  3  1  0  0  0  0
  3  4  1  0  0  0  0
  4  5  4  0  0  0  0
  5  6  4  0  0  0  0
  6  7  4  0  0  0  0
  7  8  1  0  0  0  0
  8  9  2  0  0  0  0
  9 10  1  0  0  0  0
 10 11  4  0  0  0  0
 11 12  4  0  0  0  0
 12 13  4  0  0  0  0
 13 14  4  0  0  0  0
 10 15  4  0  0  0  0
 14 15  4  0  0  0  0
  7 16  4  0  0  0  0
  4 17  4  0  0  0  0
 16 17  4  0  0  0  0
  1 19  1  0  0  0  0
  1 20  1  0  0  0  0
  1 21  1  0  0  0  0
  2 22  1  0  0  0  0
  2 23  1  0  0  0  0
  3 24  1  0  0  0  0
  3 25  1  0  0  0  0
  5 26  1  0  0  0  0
  6 27  1  0  0  0  0
  8 28  1  0  0  0  0
  9 29  1  0  0  0  0
 11 30  1  0  0  0  0
 12 31  1  0  0  0  0
 13 32  1  0  0  0  0
 14 33  1  0  0  0  0
 15 34  1  0  0  0  0
 16 35  1  0  0  0  0
 17 36  1  0  0  0  0
M  END
