  28

 N          1.0647336348       -0.1461630046        0.1491626977
 C          2.5281786424       -0.1714639206        0.1654835681
 C          3.0532907320       -0.3014054143       -1.2615049505
 C          4.5734413808       -0.1468165456       -1.3738787274
 C          4.9747290121       -0.0179879218       -2.8456268212
 C          6.4832306675        0.1527933223       -2.9945454510
 C          7.2177824475       -1.0251660750       -2.3636236274
 C          6.8329076016       -1.1548041001       -0.8941333991
 C          5.3230288907       -1.3236342243       -0.7453187794
 Cl         0.0665234745        2.0930537449       -1.4533293811
 H          0.6864009514       -0.0560789220        1.0852926491
 H          0.6980055517       -0.9933526704       -0.2716020629
 H          0.5525367561        1.0483177698       -0.6983119123
 H          2.9098620535       -0.9904292230        0.7893805124
 H          2.8664580709        0.7736272766        0.5964257554
 H          2.5732681445        0.4724566472       -1.8621634236
 H          2.7582552958       -1.2715062257       -1.6690907943
 H          4.8675309213        0.7717734488       -0.8541023095
 H          4.4611051680        0.8362453763       -3.2908634343
 H          4.6575664208       -0.9150149267       -3.3828801588
 H          6.7933963957        1.0777306152       -2.5028307958
 H          6.7433729352        0.2329375147       -4.0519947218
 H          8.2969621186       -0.8874111247       -2.4563760143
 H          6.9506439351       -1.9438487564       -2.8911557462
 H          7.1500496276       -0.2577240750       -0.3572642498
 H          7.3450759666       -2.0098931639       -0.4475310690
 H          5.0750918366       -1.4059978851        0.3144741998
 H          5.0136513666       -2.2492975366       -1.2368915527
