  16

 N         -0.7733140733       -0.0909841096        0.6112508320
 C         -0.0906097197        0.8843679980       -0.2837365214
 C          1.3980577490        0.9720140577       -0.0002845921
 S          2.2507077648       -0.5775667355       -0.3029778101
 C          3.8527791638       -0.0811536486        0.2727954197
 Cl        -4.1956408362       -0.2346950761       -0.1650818129
 H         -1.7861704550       -0.1603411497        0.4069024907
 H         -0.6665767154        0.1788251275        1.5981600717
 H         -0.3640421673       -1.0285634693        0.5031814951
 H         -0.5599901019        1.8709965674       -0.1773990040
 H         -0.2472513494        0.5923770128       -1.3292353135
 H          1.5662665365        1.2518913792        1.0420080773
 H          1.8724404619        1.7429733072       -0.6136306709
 H          4.5570121156       -0.9030598740        0.1674955507
 H          3.8081915531        0.2025499671        1.3218709185
 H          4.2193691912        0.7650718176       -0.3038413247
          16
        -22.25986042
 N         -0.5983977497       -1.7332372651        0.5777415617
 C          0.2906880028       -1.7436288635       -0.6173684060
 C          0.9086394350       -0.3806099155       -0.8731798265
 S          1.9752726486        0.1547383257        0.4654979346
 C          2.3912562502        1.7494829419       -0.1877384564
 Cl        -2.9772405251        0.7700807678        0.0077861163
 H         -0.0675424990       -1.4694342593        1.4215459311
 H         -1.0372620476       -2.6486799577        0.7485392838
 H         -1.3477492503       -1.0345236555        0.4590352673
 H         -0.2778286691       -2.0765353963       -1.4954490078
 H          1.0854674464       -2.4863137848       -0.4774552181
 H          0.1242272371        0.3693518917       -0.9988303554
 H          1.4964285321       -0.3800986456       -1.7950594142
 H          3.0594818226        2.2678086379        0.4961860666
 H          1.4955798589        2.3525988606       -0.3193627489
 H          2.8905134811        1.6486803413       -1.1488395333
          16
        -22.26148613
 N         -0.2187023329       -1.6860119764        0.8211677967
 C          0.6283212316       -1.8391582096       -0.3944190670
 C          1.0418060170       -0.4942407149       -0.9643479868
 S          2.0338256478        0.4680166443        0.1899524162
 C          1.1027022913        1.9771226924        0.1545307803
 Cl        -2.8291260663        0.4596969533       -0.0712391875
 H          0.3032755035       -1.2025328637        1.5679114926
 H         -0.5428640443       -2.5904589519        1.1912924930
 H         -1.0470284365       -1.1093107557        0.6084834425
 H          0.0874597899       -2.4241606038       -1.1495156109
 H          1.5220449333       -2.4247404889       -0.1472194090
 H          0.1543343399        0.0846884430       -1.2309822837
 H          1.6194094125       -0.6130384077       -1.8854615796
 H          1.5631716026        2.7132665136        0.8095929991
 H          0.0837120393        1.8034634557        0.4933321554
 H          1.0738263835        2.3819803951       -0.8547158169
          16
        -22.26160818
 N         -0.2059945067       -1.6971028809        0.8146119760
 C          0.6524521140       -1.8430854108       -0.3938570091
 C          1.0535665340       -0.4946594554       -0.9642647674
 S          2.0174971464        0.4864567365        0.1980592989
 C          1.0651604855        1.9817475631        0.1444719885
 Cl        -2.8188737935        0.4486718714       -0.0709656225
 H          0.3058282152       -1.2095347176        1.5656819456
 H         -0.5256663800       -2.6043665295        1.1815731064
 H         -1.0369060593       -1.1265166668        0.5956848966
 H          0.1251992547       -2.4370130394       -1.1515817784
 H          1.5513639396       -2.4167234149       -0.1376321597
 H          0.1611230920        0.0703677876       -1.2437645666
 H          1.6437609886       -0.6087162185       -1.8779462232
 H          1.5068239859        2.7273138466        0.8016430224
 H          0.0448201880        1.7946720376        0.4716675763
 H          1.0428260775        2.3817320168       -0.8668149257
