17

N          1.04847        0.03073        0.05942
C          2.53114        0.03335        0.06094
C          3.03225        1.46573        0.01217
C          4.56364        1.53036        0.01042
C          5.03637        2.96195       -0.03978
O          6.37787        3.07845       -0.04518
O          4.28479        3.92295       -0.07261
H          0.67602       -0.92795        0.09196
H          0.66509        0.47744       -0.78522
H          0.66321        0.53441        0.87054
H          2.85056       -0.54031       -0.81384
H          2.84870       -0.47894        0.97363
H          2.64045        2.02453        0.87293
H          2.64073        1.96456       -0.88457
H          4.95611        1.00319       -0.86622
H          4.95601        1.06573        0.92177
H          6.88590        2.24520       -0.01666
