  28

 N          2.5711042430        2.3072874399       -0.9477366333
 C          2.3458147572        2.4205458094        0.5085293842
 C          2.9500202228        1.2239754964        1.2323010352
 C          4.4832227492        1.1962256314        1.2598788421
 C          4.9603357110       -0.1634852327        1.7772411980
 C          6.4844319900       -0.2412435936        1.8046352232
 C          7.0615637103        0.8741950211        2.6711118430
 C          6.5934877015        2.2330649502        2.1606570039
 C          5.0683778870        2.3038464509        2.1391919454
 Cl         1.4829346798       -0.3610142338       -1.9897779826
 H          2.1162591291        3.0657225185       -1.4592581636
 H          2.1784982723        1.3976912622       -1.3008382118
 H          3.5715804973        2.2995736089       -1.1583798913
 H          1.2712385871        2.4312753016        0.6860338334
 H          2.7771049165        3.3539388005        0.8694646170
 H          2.5871331914        0.3199012034        0.7383676106
 H          2.5818275766        1.2078168382        2.2583325119
 H          4.8749043254        1.3077827877        0.2438603334
 H          4.5624706292       -0.9563857320        1.1390574749
 H          4.5724461299       -0.3247283414        2.7858746349
 H          6.8712802679       -0.1482807646        0.7868727041
 H          6.7980500163       -1.2141232791        2.1894505567
 H          8.1525163105        0.8253969752        2.6630896748
 H          6.7287693011        0.7383904748        3.7027716761
 H          6.9816332540        2.3884930938        1.1513573271
 H          6.9924140165        3.0248222443        2.7978679243
 H          4.7658944149        3.2865045982        1.7770889493
 H          4.6895855123        2.1895106706        3.1569745791
