  28

 N          0.8876600000       -0.2841900000       -0.7223100000
 C          2.3690900000       -0.3346800000       -0.7360600000
 C          2.9313800000        0.9347400000       -1.3485600000
 C          4.4764100000        0.9193100000       -1.3575500000
 C          5.0209000000        2.2163500000       -1.9751200000
 C          6.5433100000        2.1963800000       -2.0895300000
 C          7.0226400000        0.9805200000       -2.8757200000
 C          6.5324600000       -0.3094400000       -2.2319400000
 C          5.0168700000       -0.3194700000       -2.0943500000
 Cl         0.1102800000       -0.3110800000        2.2652500000
 H          0.5466100000       -0.9914200000       -0.0301800000
 H          0.3794500000       -0.4220000000       -1.6199900000
 H          0.5318800000        0.5550400000       -0.2269800000
 H          2.6183300000       -1.2356500000       -1.2704200000
 H          2.6870200000       -0.4255300000        0.3128400000
 H          2.5863800000        1.8098500000       -0.7773600000
 H          2.5560500000        1.0592900000       -2.3721200000
 H          4.8255300000        0.8748400000       -0.3160400000
 H          4.7174400000        3.0759400000       -1.3652300000
 H          4.5877500000        2.3651500000       -2.9719500000
 H          6.9871900000        2.1830700000       -1.0861400000
 H          6.8892100000        3.1126200000       -2.5809000000
 H          8.1145100000        0.9748300000       -2.9276600000
 H          6.6474700000        1.0396400000       -3.9048600000
 H          6.9900000000       -0.4265800000       -1.2416400000
 H          6.8483600000       -1.1691400000       -2.8332600000
 H          4.7381100000       -1.2334500000       -1.5579500000
 H          4.5610800000       -0.3812600000       -3.0902700000
