 xtb: 6.5.1 (fef0646)
          01242314583D

 15 14  0     0  0            999 V2000
    2.9541   -1.4588   -0.3340 N   0  0  0  0  0  0  0  0  0  0  0  0
    2.4892   -0.1062    0.0446 C   0  0  0  0  0  0  0  0  0  0  0  0
    3.0583    0.2765    1.3983 C   0  0  0  0  0  0  0  0  0  0  0  0
    4.9080    0.2704    1.3005 S   0  0  0  0  0  0  0  0  0  0  0  0
    5.3018    0.7562    2.9863 C   0  0  0  0  0  0  0  0  0  0  0  0
    2.6594   -1.7002   -1.2861 H   0  0  0  0  0  0  0  0  0  0  0  0
    2.5956   -2.1635    0.3203 H   0  0  0  0  0  0  0  0  0  0  0  0
    3.9825   -1.4712   -0.2830 H   0  0  0  0  0  0  0  0  0  0  0  0
    1.4000   -0.0846    0.0864 H   0  0  0  0  0  0  0  0  0  0  0  0
    2.8331    0.6087   -0.7028 H   0  0  0  0  0  0  0  0  0  0  0  0
    2.7691   -0.4267    2.1779 H   0  0  0  0  0  0  0  0  0  0  0  0
    2.7436    1.2792    1.6789 H   0  0  0  0  0  0  0  0  0  0  0  0
    6.3849    0.7538    3.0699 H   0  0  0  0  0  0  0  0  0  0  0  0
    4.8742    0.0394    3.6815 H   0  0  0  0  0  0  0  0  0  0  0  0
    4.9185    1.7561    3.1744 H   0  0  0  0  0  0  0  0  0  0  0  0
  1  2  1  0  0  0  0
  2  3  1  0  0  0  0
  3  4  1  0  0  0  0
  4  5  1  0  0  0  0
  1  6  1  0  0  0  0
  1  7  1  0  0  0  0
  1  8  1  0  0  0  0
  2  9  1  0  0  0  0
  2 10  1  0  0  0  0
  3 11  1  0  0  0  0
  3 12  1  0  0  0  0
  5 13  1  0  0  0  0
  5 14  1  0  0  0  0
  5 15  1  0  0  0  0
M  CHG  1   1   1
M  END
