39

N          3.04167       -1.04073       -0.21674
C          2.53685        0.28385        0.23916
C          3.63156        1.07013        0.96436
C          4.79835        1.36993        0.06897
C          4.97894        2.44871       -0.76933
C          6.22474        2.38902       -1.46207
C          6.98225        1.28332       -1.12038
C          8.30813        0.93045       -1.58036
C          9.23474        0.13501       -0.93580
C         10.45820        0.02262       -1.65569
C         10.44877        0.72648       -2.84384
C         11.53613        0.78847       -3.79164
C         12.46590       -0.20535       -4.02178
C         13.44578        0.16456       -4.98756
C         13.24825        1.43951       -5.48140
C         14.03640        2.12251       -6.47960
C         14.31309        3.47517       -6.57037
C         15.11216        3.80010       -7.70675
C         15.42505        2.68613       -8.45091
S         14.77414        1.26099       -7.77268
S         11.87334        2.16708       -4.75387
S          8.94030        1.50721       -3.07030
S          6.13578        0.30590        0.01178
H          2.31375       -1.57754       -0.70702
H          3.38255       -1.61424        0.56493
H          3.83035       -0.92558       -0.87067
H          1.69187        0.08460        0.90364
H          2.18132        0.80567       -0.65457
H          3.96014        0.51969        1.85514
H          3.20722        2.01478        1.32632
H          4.26973        3.26285       -0.87881
H          6.56237        3.15401       -2.15378
H          9.07159       -0.33265        0.02726
H         11.31632       -0.53825       -1.30131
H         12.45355       -1.16831       -3.52395
H         14.26029       -0.48051       -5.29750
H         13.96448        4.20897       -5.85292
H         15.43810        4.80014       -7.96587
H         16.00912        2.63728       -9.35997
