  22

 N         -1.8788900000        0.1678500000        0.8206500000
 C         -1.0367800000        0.0840500000       -0.4212400000
 C         -0.1444800000        1.3232300000       -0.4463800000
 C          1.0095500000        1.2601700000        0.5495000000
 C          1.7859600000       -0.0479500000        0.4422400000
 C          0.8810200000       -1.2658600000        0.5988800000
 C         -0.2916100000       -1.2515500000       -0.3804400000
 Cl         1.1156900000       -0.1459400000       -3.7971300000
 H         -2.4212000000        1.0336000000        0.8292900000
 H         -1.2955100000        0.1364900000        1.6652700000
 H         -2.5364700000       -0.6248100000        0.8551000000
 H         -1.7522200000        0.1032100000       -1.2496600000
 H         -0.7342800000        2.2289800000       -0.2586900000
 H          0.2689900000        1.4483200000       -1.4487600000
 H          0.6265700000        1.3765600000        1.5701400000
 H          1.6874400000        2.1032900000        0.3716700000
 H          2.5673600000       -0.0736000000        1.2124200000
 H          2.2972800000       -0.0929800000       -0.5262000000
 H          0.5015600000       -1.3080700000        1.6274200000
 H          1.4677500000       -2.1789700000        0.4442000000
 H         -0.9772000000       -2.0680000000       -0.1379500000
 H          0.0910000000       -1.4767100000       -1.3779300000
