28
 xtb: 6.5.1 (fef0646)
N           -2.43567672060011        0.09556085251306       -0.79968910879775
C           -2.03208643234578       -1.34092619765229       -0.69391047625115
C           -0.72001014161239       -1.54508042095664        0.06120706244295
C            0.51324447392951       -0.88239682421137       -0.59952638456560
C            1.81307060118714       -1.67128978949241       -0.30226224230253
C            3.02929564941790       -1.04185267642010       -1.00331422051022
C            3.19963419229565        0.43356330314853       -0.60153384604134
C            1.91365036835492        1.23052096138258       -0.87735051343381
C            0.70924037277899        0.59233867371797       -0.16697112154139
Cl          -2.15632810722469        1.56918280470973        1.96202733813051
H           -3.38585326763434        0.13461902235002       -1.29238319462376
H           -1.79323312567464        0.54025085785560       -1.55041932950092
H           -2.41010020000729        0.55366974937157        0.00585828348584
H           -1.93161572110717       -1.85216876416430       -1.70696999562778
H           -2.83448870167736       -1.91792527615268       -0.21651087685629
H           -0.52305400464066       -2.61712462883348        0.19379572409906
H           -0.84296036005190       -1.14658242166085        1.06941273622327
H            0.36615087605713       -0.90261510650827       -1.69516079854799
H            1.69430319592100       -2.72536019046697       -0.58626602986342
H            1.97191012869909       -1.67909244727294        0.78383267948323
H            2.89627605917491       -1.10986281371757       -2.08775974005707
H            3.94166693769749       -1.61114064612985       -0.78063603959871
H            4.05261537734935        0.88515776655651       -1.11822188985551
H            3.43425257050560        0.49668314068376        0.46913108317044
H            1.72348667096389        1.25245707092207       -1.96211673109874
H            2.02431066691275        2.28153145806009       -0.58210536214831
H           -0.20897867957977        1.17590508123832       -0.34378482148629
H            0.86055489821934        0.61859796221803        0.91134029763937
