 xtb: 6.5.1 (fef0646)
          01242310103D

 20 19  0     0  0            999 V2000
   -1.7612   -1.4653    0.1518 N   0  0  0  0  0  0  0  0  0  0  0  0
   -1.9675   -0.3158   -0.7728 C   0  0  0  0  0  0  0  0  0  0  0  0
   -1.8287    1.0508   -0.0966 C   0  0  0  0  0  0  0  0  0  0  0  0
   -0.5248    1.3006    0.6817 C   0  0  0  0  0  0  0  0  0  0  0  0
    0.7821    1.2092   -0.1387 C   0  0  0  0  0  0  0  0  0  0  0  0
    1.4959   -0.1045    0.0359 C   0  0  0  0  0  0  0  0  0  0  0  0
    2.7146   -0.2053   -0.5213 O   0  0  0  0  0  0  0  0  0  0  0  0
    0.9769   -1.0062    0.6480 O   0  0  0  0  0  0  0  0  0  0  0  0
   -1.9301   -2.3718   -0.3084 H   0  0  0  0  0  0  0  0  0  0  0  0
   -2.3674   -1.4100    0.9824 H   0  0  0  0  0  0  0  0  0  0  0  0
   -0.7705   -1.4464    0.4569 H   0  0  0  0  0  0  0  0  0  0  0  0
   -2.9594   -0.4079   -1.2361 H   0  0  0  0  0  0  0  0  0  0  0  0
   -1.2506   -0.3984   -1.5998 H   0  0  0  0  0  0  0  0  0  0  0  0
   -2.6781    1.1843    0.5861 H   0  0  0  0  0  0  0  0  0  0  0  0
   -1.9470    1.8403   -0.8499 H   0  0  0  0  0  0  0  0  0  0  0  0
   -0.4519    0.5964    1.5206 H   0  0  0  0  0  0  0  0  0  0  0  0
   -0.5852    2.2902    1.1571 H   0  0  0  0  0  0  0  0  0  0  0  0
    1.4846    1.9984    0.1576 H   0  0  0  0  0  0  0  0  0  0  0  0
    0.5878    1.3786   -1.2023 H   0  0  0  0  0  0  0  0  0  0  0  0
    3.0888   -1.0808   -0.3247 H   0  0  0  0  0  0  0  0  0  0  0  0
  1  2  1  0  0  0  0
  2  3  1  0  0  0  0
  3  4  1  0  0  0  0
  4  5  1  0  0  0  0
  5  6  1  0  0  0  0
  6  7  1  0  0  0  0
  6  8  2  0  0  0  0
  1  9  1  0  0  0  0
  1 10  1  0  0  0  0
  1 11  1  0  0  0  0
  2 12  1  0  0  0  0
  2 13  1  0  0  0  0
  3 14  1  0  0  0  0
  3 15  1  0  0  0  0
  4 16  1  0  0  0  0
  4 17  1  0  0  0  0
  5 18  1  0  0  0  0
  5 19  1  0  0  0  0
  7 20  1  0  0  0  0
M  CHG  1   1   1
M  END
