19
2.574
N           -1.23459  -0.98964   0.60484
C           -0.68282  -1.48687  -0.68547
C            0.82580  -1.70672  -0.59782
C            1.57919  -0.42863  -0.44604
C            2.18948   0.24672  -1.45375
C            2.82874   1.45071  -1.03199
C            2.69874   1.68650   0.29263
S            1.78375   0.43513   1.05271
Cl          -4.45797   0.24343   0.25897
H           -0.62421  -0.23094   0.95450
H           -1.23293  -1.72954   1.32441
H           -2.19952  -0.62501   0.51782
H           -0.89545  -0.76233  -1.48124
H           -1.20011  -2.41007  -0.97579
H            1.19240  -2.23744  -1.48523
H            1.05308  -2.35684   0.25466
H            2.18687  -0.09757  -2.47740
H            3.36180   2.10562  -1.70681
H            3.10126   2.53297   0.81818
