37
 xtb: 6.5.1 (fef0646)
N           -3.61434634992508        0.59020339972319       -1.64323847262653
C           -4.18363616893244        1.59263070688747       -0.70509934637694
C           -3.46686186155147        1.58468508023180        0.63877641307681
O           -2.06749381495326        1.82049656258741        0.49370066820899
C           -1.23267173159670        0.71222561056349        0.42614223788451
C            0.15099628233299        0.98119718481650        0.24508179686140
C            0.62860754494361        2.31222675801284        0.13387188470167
C            1.94860055656837        2.58040632284838       -0.04301090694744
C            1.07659790679896       -0.08463735041681        0.16785196645334
C            0.63298836467990       -1.42337868196625        0.27241878317560
C           -0.73678579881005       -1.66182428011246        0.44377015028402
C           -1.63721573837015       -0.62909614501497        0.51404674063442
C            1.58769376388131       -2.47469863656063        0.19442194625174
C            2.90885303145676       -2.21444663167057        0.02023358876504
C            3.38943211202221       -0.87735181062794       -0.09118920214097
C            4.74295100191817       -0.58055620087990       -0.27086746045478
C            5.17153036678094        0.72800981191961       -0.37515826079049
C            4.27222794614912        1.77314474661685       -0.30360653302787
C            2.90754977020391        1.53040490808465       -0.12321322022099
C            2.46166845740129        0.19058422156029       -0.01591783067704
Cl          -4.40785495739311       -2.67342029273276        0.20649640651667
H           -2.63549370202714        0.58304496544405       -1.70122109814518
H           -4.08524443099113        0.50096313041253       -2.52682689309600
H           -3.83493604323755       -0.44622484708024       -1.17559296924704
H           -5.25921206850899        1.43468862304354       -0.56823886337288
H           -4.04005366728920        2.52346441326783       -1.20146770201183
H           -3.63534607209853        0.67288548739904        1.21893054985043
H           -3.85039110196482        2.40252553153256        1.25981801883868
H           -0.08776002043043        3.11409344013813        0.19625801027450
H            2.29126264554836        3.60060034634342       -0.12352380018916
H           -1.07723310373961       -2.67889679369254        0.52487655018473
H           -2.67244795574445       -0.86617131104326        0.64753804146142
H            1.24374669840185       -3.49106850387620        0.27298014159528
H            3.61951619350853       -3.02273335746628       -0.04147492522357
H            5.45440610608749       -1.38816086277986       -0.32992868551383
H            6.22264290510125        0.93715196469686       -0.51291653027137
H            4.61836643918455        2.79201658543384       -0.38340667670515
