 xtb: 6.5.1 (fef0646)
          01242316573D

 28 27  0     0  0            999 V2000
   -3.0227    1.8370   -0.0800 N   0  0  0  0  0  0  0  0  0  0  0  0
   -2.1184    1.5347    1.0665 C   0  0  0  0  0  0  0  0  0  0  0  0
   -0.8858    0.7179    0.6579 C   0  0  0  0  0  0  0  0  0  0  0  0
   -0.0845    0.2410    1.8919 C   0  0  0  0  0  0  0  0  0  0  0  0
    1.1308   -0.6060    1.4831 C   0  0  0  0  0  0  0  0  0  0  0  0
    2.0536    0.1615    0.5140 C   0  0  0  0  0  0  0  0  0  0  0  0
    3.2282   -0.6935    0.0865 C   0  0  0  0  0  0  0  0  0  0  0  0
    2.9260   -1.9075   -0.4296 O   0  0  0  0  0  0  0  0  0  0  0  0
    4.3594   -0.2716    0.2052 O   0  0  0  0  0  0  0  0  0  0  0  0
    1.2617    0.6521   -0.7132 C   0  0  0  0  0  0  0  0  0  0  0  0
    0.0439    1.4954   -0.3016 C   0  0  0  0  0  0  0  0  0  0  0  0
   -3.5340   -1.2489   -1.6669 Cl  0  0  0  0  0  0  0  0  0  0  0  0
   -3.2669    0.9679   -0.5783 H   0  0  0  0  0  0  0  0  0  0  0  0
   -2.5725    2.4670   -0.7605 H   0  0  0  0  0  0  0  0  0  0  0  0
   -3.8975    2.2832    0.2270 H   0  0  0  0  0  0  0  0  0  0  0  0
   -2.6775    0.9865    1.8330 H   0  0  0  0  0  0  0  0  0  0  0  0
   -1.7962    2.4656    1.5445 H   0  0  0  0  0  0  0  0  0  0  0  0
   -1.2365   -0.1779    0.1226 H   0  0  0  0  0  0  0  0  0  0  0  0
   -0.7368   -0.3129    2.5777 H   0  0  0  0  0  0  0  0  0  0  0  0
    0.2519    1.1189    2.4534 H   0  0  0  0  0  0  0  0  0  0  0  0
    0.7967   -1.5246    0.9891 H   0  0  0  0  0  0  0  0  0  0  0  0
    1.6987   -0.9370    2.3609 H   0  0  0  0  0  0  0  0  0  0  0  0
    2.4585    1.0376    1.0403 H   0  0  0  0  0  0  0  0  0  0  0  0
    3.7503   -2.3559   -0.6710 H   0  0  0  0  0  0  0  0  0  0  0  0
    0.9333   -0.2217   -1.2859 H   0  0  0  0  0  0  0  0  0  0  0  0
    1.9226    1.2110   -1.3870 H   0  0  0  0  0  0  0  0  0  0  0  0
   -0.5106    1.8299   -1.1855 H   0  0  0  0  0  0  0  0  0  0  0  0
    0.3804    2.4100    0.1975 H   0  0  0  0  0  0  0  0  0  0  0  0
  1  2  1  0  0  0  0
  2  3  1  0  0  0  0
  3  4  1  0  0  0  0
  4  5  1  0  0  0  0
  5  6  1  0  0  0  0
  6  7  1  0  0  0  0
  7  8  1  0  0  0  0
  7  9  2  0  0  0  0
  6 10  1  0  0  0  0
  3 11  1  0  0  0  0
 10 11  1  0  0  0  0
  1 13  1  0  0  0  0
  1 14  1  0  0  0  0
  1 15  1  0  0  0  0
  2 16  1  0  0  0  0
  2 17  1  0  0  0  0
  3 18  1  0  0  0  0
  4 19  1  0  0  0  0
  4 20  1  0  0  0  0
  5 21  1  0  0  0  0
  5 22  1  0  0  0  0
  6 23  1  0  0  0  0
  8 24  1  0  0  0  0
 10 25  1  0  0  0  0
 10 26  1  0  0  0  0
 11 27  1  0  0  0  0
 11 28  1  0  0  0  0
M  END
