21
 xtb: 6.5.1 (fef0646)
N           -1.56356678563711       -1.73486018606881       -0.26136152482649
C           -0.16775188326896       -1.66421662049073        0.27629064528995
C            0.62133595755527       -0.52293167447374       -0.35639421956326
C            2.02443154478337       -0.34879843248648        0.22502563372691
C            2.78578892027629        0.81885149925839       -0.40515688791164
C            4.18018347785221        1.00042325065840        0.17613414654687
Cl          -3.06729345359043        1.03010210760946        0.14709297349918
H           -2.03781208850464       -2.60284316393535        0.16358141501236
H           -1.47756796018742       -2.02131787492187       -1.29413848739670
H           -2.04863684676213       -0.95922669766787       -0.14899691196194
H            0.42330495629566       -2.62860750997610        0.13838224439330
H           -0.19162391585771       -1.55149670064403        1.36440464740539
H            0.05061611976477        0.38847080875208       -0.22796365908610
H            0.69035027463850       -0.68595394694306       -1.43632103200492
H            2.60658033824832       -1.27344780998014        0.09937857002359
H            1.96375206512795       -0.20327629371305        1.31139084338857
H            2.19980558800014        1.74050567280048       -0.27804371626672
H            2.84283732741850        0.67028311335493       -1.49130237964148
H            4.71000266517608        1.84017461873969       -0.28643884560079
H            4.78935939117293        0.10902289666621        0.02546330190673
H            4.14103364493702        1.19001344061062        1.24813341832876
