 xtb: 6.5.1 (fef0646)
          01242317103D

 21 19  0     0  0            999 V2000
   -1.4915   -1.8731   -0.2909 N   0  0  0  0  0  0  0  0  0  0  0  0
   -0.1224   -1.7083    0.2795 C   0  0  0  0  0  0  0  0  0  0  0  0
    0.6286   -0.5416   -0.3506 C   0  0  0  0  0  0  0  0  0  0  0  0
    2.0312   -0.3503    0.2271 C   0  0  0  0  0  0  0  0  0  0  0  0
    2.7847    0.8208   -0.4053 C   0  0  0  0  0  0  0  0  0  0  0  0
    4.1804    1.0037    0.1723 C   0  0  0  0  0  0  0  0  0  0  0  0
   -3.1634    1.1774    0.1647 Cl  0  0  0  0  0  0  0  0  0  0  0  0
   -2.0093   -2.6472    0.1545 H   0  0  0  0  0  0  0  0  0  0  0  0
   -1.4487   -2.0598   -1.3017 H   0  0  0  0  0  0  0  0  0  0  0  0
   -2.0404   -1.0092   -0.1622 H   0  0  0  0  0  0  0  0  0  0  0  0
    0.4503   -2.6339    0.1464 H   0  0  0  0  0  0  0  0  0  0  0  0
   -0.1881   -1.5615    1.3643 H   0  0  0  0  0  0  0  0  0  0  0  0
    0.0477    0.3795   -0.2235 H   0  0  0  0  0  0  0  0  0  0  0  0
    0.6921   -0.6887   -1.4351 H   0  0  0  0  0  0  0  0  0  0  0  0
    2.6107   -1.2726    0.1002 H   0  0  0  0  0  0  0  0  0  0  0  0
    1.9659   -0.2033    1.3119 H   0  0  0  0  0  0  0  0  0  0  0  0
    2.1988    1.7404   -0.2772 H   0  0  0  0  0  0  0  0  0  0  0  0
    2.8416    0.6711   -1.4914 H   0  0  0  0  0  0  0  0  0  0  0  0
    4.7090    1.8420   -0.2871 H   0  0  0  0  0  0  0  0  0  0  0  0
    4.7900    0.1106    0.0229 H   0  0  0  0  0  0  0  0  0  0  0  0
    4.1419    1.1899    1.2472 H   0  0  0  0  0  0  0  0  0  0  0  0
  1  2  1  0  0  0  0
  2  3  1  0  0  0  0
  3  4  1  0  0  0  0
  4  5  1  0  0  0  0
  5  6  1  0  0  0  0
  1  8  1  0  0  0  0
  1  9  1  0  0  0  0
  1 10  1  0  0  0  0
  2 11  1  0  0  0  0
  2 12  1  0  0  0  0
  3 13  1  0  0  0  0
  3 14  1  0  0  0  0
  4 15  1  0  0  0  0
  4 16  1  0  0  0  0
  5 17  1  0  0  0  0
  5 18  1  0  0  0  0
  6 19  1  0  0  0  0
  6 20  1  0  0  0  0
  6 21  1  0  0  0  0
M  END
