 xtb: 6.5.1 (fef0646)
          02032320423D

 21 19  0     0  0            999 V2000
   -1.1773   -1.1136    0.2507 N   0  0  0  0  0  0  0  0  0  0  0  0
   -0.1312   -0.0743    0.0204 C   0  0  0  0  0  0  0  0  0  0  0  0
    1.2797   -0.6181    0.2095 C   0  0  0  0  0  0  0  0  0  0  0  0
    2.3631    0.4349   -0.0267 C   0  0  0  0  0  0  0  0  0  0  0  0
    3.7795   -0.1095    0.1642 C   0  0  0  0  0  0  0  0  0  0  0  0
    4.8522    0.9428   -0.0753 C   0  0  0  0  0  0  0  0  0  0  0  0
   -4.3779    0.2790   -0.2335 Cl  0  0  0  0  0  0  0  0  0  0  0  0
   -1.0607   -1.9049   -0.4008 H   0  0  0  0  0  0  0  0  0  0  0  0
   -2.1294   -0.7355    0.1192 H   0  0  0  0  0  0  0  0  0  0  0  0
   -1.1180   -1.4893    1.2068 H   0  0  0  0  0  0  0  0  0  0  0  0
   -0.2949    0.7727    0.6974 H   0  0  0  0  0  0  0  0  0  0  0  0
   -0.2357    0.3389   -0.9899 H   0  0  0  0  0  0  0  0  0  0  0  0
    1.4384   -1.4687   -0.4634 H   0  0  0  0  0  0  0  0  0  0  0  0
    1.3812   -1.0327    1.2192 H   0  0  0  0  0  0  0  0  0  0  0  0
    2.2021    1.2863    0.6456 H   0  0  0  0  0  0  0  0  0  0  0  0
    2.2607    0.8484   -1.0373 H   0  0  0  0  0  0  0  0  0  0  0  0
    3.9327   -0.9649   -0.5066 H   0  0  0  0  0  0  0  0  0  0  0  0
    3.8754   -0.5235    1.1765 H   0  0  0  0  0  0  0  0  0  0  0  0
    4.7965    1.3399   -1.0906 H   0  0  0  0  0  0  0  0  0  0  0  0
    5.8589    0.5434    0.0659 H   0  0  0  0  0  0  0  0  0  0  0  0
    4.7361    1.7876    0.6063 H   0  0  0  0  0  0  0  0  0  0  0  0
  1  2  1  0  0  0  0
  2  3  1  0  0  0  0
  3  4  1  0  0  0  0
  4  5  1  0  0  0  0
  5  6  1  0  0  0  0
  1  8  1  0  0  0  0
  1  9  1  0  0  0  0
  1 10  1  0  0  0  0
  2 11  1  0  0  0  0
  2 12  1  0  0  0  0
  3 13  1  0  0  0  0
  3 14  1  0  0  0  0
  4 15  1  0  0  0  0
  4 16  1  0  0  0  0
  5 17  1  0  0  0  0
  5 18  1  0  0  0  0
  6 19  1  0  0  0  0
  6 20  1  0  0  0  0
  6 21  1  0  0  0  0
M  END
