 xtb: 6.5.1 (fef0646)
          01232314273D

 28 29  0     0  0            999 V2000
    2.7656    0.6076    0.4267 N   0  0  0  0  0  0  0  0  0  0  0  0
    2.8418   -0.1570   -0.8496 C   0  0  0  0  0  0  0  0  0  0  0  0
    3.2712   -1.5761   -0.4633 C   0  0  0  0  0  0  0  0  0  0  0  0
    4.3128   -1.3815    0.4684 O   0  0  0  0  0  0  0  0  0  0  0  0
    4.9295   -2.4937    1.0480 C   0  0  0  0  0  0  0  0  0  0  0  0
    4.5799   -3.7855    0.7710 C   0  0  0  0  0  0  0  0  0  0  0  0
    5.2459   -4.8419    1.4153 C   0  0  0  0  0  0  0  0  0  0  0  0
    6.2370   -4.5934    2.3184 C   0  0  0  0  0  0  0  0  0  0  0  0
    6.6199   -3.2686    2.6186 C   0  0  0  0  0  0  0  0  0  0  0  0
    7.6469   -2.9833    3.5420 C   0  0  0  0  0  0  0  0  0  0  0  0
    8.0096   -1.6939    3.8142 C   0  0  0  0  0  0  0  0  0  0  0  0
    7.3638   -0.6289    3.1700 C   0  0  0  0  0  0  0  0  0  0  0  0
    6.3626   -0.8698    2.2705 C   0  0  0  0  0  0  0  0  0  0  0  0
    5.9619   -2.1889    1.9737 C   0  0  0  0  0  0  0  0  0  0  0  0
    2.8897    1.6167    0.3040 H   0  0  0  0  0  0  0  0  0  0  0  0
    3.5611    0.1877    0.9737 H   0  0  0  0  0  0  0  0  0  0  0  0
    1.8884    0.4302    0.9286 H   0  0  0  0  0  0  0  0  0  0  0  0
    3.6123    0.2960   -1.4749 H   0  0  0  0  0  0  0  0  0  0  0  0
    1.8914   -0.1501   -1.3803 H   0  0  0  0  0  0  0  0  0  0  0  0
    3.6155   -2.1227   -1.3468 H   0  0  0  0  0  0  0  0  0  0  0  0
    2.4389   -2.1283   -0.0057 H   0  0  0  0  0  0  0  0  0  0  0  0
    3.8032   -4.0229    0.0616 H   0  0  0  0  0  0  0  0  0  0  0  0
    4.9554   -5.8535    1.1803 H   0  0  0  0  0  0  0  0  0  0  0  0
    6.7458   -5.4055    2.8137 H   0  0  0  0  0  0  0  0  0  0  0  0
    8.1446   -3.8085    4.0285 H   0  0  0  0  0  0  0  0  0  0  0  0
    8.7977   -1.4855    4.5209 H   0  0  0  0  0  0  0  0  0  0  0  0
    7.6663    0.3845    3.3864 H   0  0  0  0  0  0  0  0  0  0  0  0
    5.8837   -0.0444    1.7621 H   0  0  0  0  0  0  0  0  0  0  0  0
  1  2  1  0  0  0  0
  2  3  1  0  0  0  0
  3  4  1  0  0  0  0
  4  5  1  0  0  0  0
  5  6  2  0  0  0  0
  6  7  4  0  0  0  0
  7  8  2  0  0  0  0
  8  9  4  0  0  0  0
  9 10  4  0  0  0  0
 10 11  2  0  0  0  0
 11 12  4  0  0  0  0
 12 13  2  0  0  0  0
  5 14  4  0  0  0  0
  9 14  4  0  0  0  0
 13 14  4  0  0  0  0
  1 15  1  0  0  0  0
  1 16  1  0  0  0  0
  1 17  1  0  0  0  0
  2 18  1  0  0  0  0
  2 19  1  0  0  0  0
  3 20  1  0  0  0  0
  3 21  1  0  0  0  0
  6 22  1  0  0  0  0
  7 23  1  0  0  0  0
  8 24  1  0  0  0  0
 10 25  1  0  0  0  0
 11 26  1  0  0  0  0
 12 27  1  0  0  0  0
 13 28  1  0  0  0  0
M  CHG  1   1   1
M  END
