 xtb: 6.5.1 (fef0646)
          01242317123D

 18 16  0     0  0            999 V2000
   -3.2299   -0.6031   -0.6299 N   0  0  0  0  0  0  0  0  0  0  0  0
   -2.3873    0.0548    0.4106 C   0  0  0  0  0  0  0  0  0  0  0  0
   -0.9810   -0.5279    0.4733 C   0  0  0  0  0  0  0  0  0  0  0  0
   -0.1006    0.1440    1.5285 C   0  0  0  0  0  0  0  0  0  0  0  0
    1.3108   -0.4197    1.5690 C   0  0  0  0  0  0  0  0  0  0  0  0
    2.4766   -0.0722   -0.1868 I   0  0  0  0  0  0  0  0  0  0  0  0
   -6.4454    0.8494   -0.6316 Cl  0  0  0  0  0  0  0  0  0  0  0  0
   -4.1799   -0.2006   -0.6622 H   0  0  0  0  0  0  0  0  0  0  0  0
   -3.3221   -1.6104   -0.4445 H   0  0  0  0  0  0  0  0  0  0  0  0
   -2.8102   -0.4963   -1.5658 H   0  0  0  0  0  0  0  0  0  0  0  0
   -2.8701   -0.0379    1.3907 H   0  0  0  0  0  0  0  0  0  0  0  0
   -2.3327    1.1320    0.2148 H   0  0  0  0  0  0  0  0  0  0  0  0
   -0.5059   -0.4429   -0.5103 H   0  0  0  0  0  0  0  0  0  0  0  0
   -1.0364   -1.6045    0.6692 H   0  0  0  0  0  0  0  0  0  0  0  0
   -0.5772    0.0499    2.5138 H   0  0  0  0  0  0  0  0  0  0  0  0
   -0.0541    1.2223    1.3299 H   0  0  0  0  0  0  0  0  0  0  0  0
    1.2926   -1.5012    1.7162 H   0  0  0  0  0  0  0  0  0  0  0  0
    1.8883    0.0065    2.3928 H   0  0  0  0  0  0  0  0  0  0  0  0
  1  2  1  0  0  0  0
  2  3  1  0  0  0  0
  3  4  1  0  0  0  0
  4  5  1  0  0  0  0
  5  6  1  0  0  0  0
  1  8  1  0  0  0  0
  1  9  1  0  0  0  0
  1 10  1  0  0  0  0
  2 11  1  0  0  0  0
  2 12  1  0  0  0  0
  3 13  1  0  0  0  0
  3 14  1  0  0  0  0
  4 15  1  0  0  0  0
  4 16  1  0  0  0  0
  5 17  1  0  0  0  0
  5 18  1  0  0  0  0
M  END
