17
 xtb: 6.5.1 (fef0646)
N           -4.88576242556142       -1.04487297482616       -0.18637071796038
C           -3.42380318021645       -0.92229455610766        0.10565737692135
C           -2.87500918575056        0.47343083700725       -0.17607860859846
C           -1.40091597151491        0.65639698016730        0.22679838718139
C           -0.43255693015553       -0.19642147785831       -0.57076376329040
I            1.55303854164075        0.12788555763525        0.09019958348425
H           -5.22650024247023       -1.99743742644727       -0.10335736638894
H           -5.05120645323024       -0.75977591944293       -1.20255333968663
H           -5.45824844482847       -0.42152223407629        0.37342684470009
H           -2.88072508794499       -1.67457642755270       -0.44376304030740
H           -3.30292422394909       -1.17372146209465        1.17725292292127
H           -3.48983795007430        1.21276310604612        0.35599312217577
H           -2.97719236462837        0.69469144309136       -1.22511660090012
H           -1.29642570960382        0.39996087617186        1.32653064323466
H           -1.10738230017004        1.68975536121945        0.16551612896365
H           -0.49294636828057        0.00291816853530       -1.61176469386491
H           -0.61582139525230       -1.28333554483026       -0.41160074230316
