17
 xtb: 6.5.1 (fef0646)
N           -4.89379394757037       -1.02996250361075       -0.18915782699023
C           -3.42768456252061       -0.92768519191525        0.09489963663410
C           -2.87306343647664        0.46844155903390       -0.17342786499840
C           -1.39935719173723        0.64673906242456        0.23120978977131
C           -0.43252655109510       -0.22364597503043       -0.55000129482468
I            1.55654492736006        0.13893358811900        0.08488116602930
H           -5.23204756654784       -1.99361912759939       -0.11165788748175
H           -5.05594039507157       -0.74845091013007       -1.20149786292901
H           -5.45617514806923       -0.42023034502694        0.38046333244663
H           -2.88422065529173       -1.67513474235761       -0.45060739143346
H           -3.30293289983180       -1.17943914991282        1.17307093890681
H           -3.48899332347196        1.21060078908881        0.35822099260757
H           -2.97580188786689        0.69598394355775       -1.22383599669026
H           -1.29714026543315        0.40133851407201        1.32890019417366
H           -1.10521953630204        1.68613359266763        0.16277480349334
H           -0.49497232805639       -0.01349660747775       -1.60742116267147
H           -0.61397494888206       -1.29036766932549       -0.39669422077370
