24
0.766
N           -4.01263  -1.34249  -0.68749
C           -3.23705  -0.21937  -0.08051
C           -1.73090  -0.40973  -0.21069
C           -0.91673   0.72839   0.41067
C            0.56128   0.51835   0.27830
C            1.25981   1.02611  -0.82147
C            2.62432   0.79748  -0.96280
C            3.30763   0.05138  -0.00995
C            2.62396  -0.46777   1.08284
C            1.25947  -0.23837   1.22396
H           -3.77492  -2.23159  -0.23580
H           -3.79999  -1.43077  -1.68653
H           -5.02302  -1.19612  -0.58968
H           -3.50802  -0.11984   0.97672
H           -3.53308   0.72445  -0.55214
H           -1.46379  -0.51357  -1.26722
H           -1.44040  -1.35886   0.25088
H           -1.17328   0.83696   1.46939
H           -1.19173   1.68121  -0.05319
H            0.73080   1.59905  -1.56316
H            3.15194   1.19780  -1.81259
H            4.36483  -0.12601  -0.11951
H            3.15089  -1.04983   1.82063
H            0.72987  -0.64548   2.06778
