24
 xtb: 6.5.1 (fef0646)
N           -4.01078530207038       -1.34542214398191       -0.68459080961374
C           -3.23619960328024       -0.25619990582574       -0.01338491193666
C           -1.73217568295250       -0.36957544709594       -0.28127465190747
C           -0.91714097876216        0.74441459449971        0.38314401452000
C            0.56096431596133        0.52507872183953        0.26653455291865
C            1.27236460192451        1.01447368243482       -0.83348380154462
C            2.63688881282944        0.77592343768566       -0.95914087720484
C            3.30752372452934        0.03971939010014        0.01069636714223
C            2.61102563746509       -0.46066857249694        1.10424725862869
C            1.24628079824458       -0.22285099687879        1.22877976046097
H           -3.69659344880420       -2.25473122714184       -0.31937547725858
H           -3.87856835960803       -1.34872445549063       -1.70970405149953
H           -5.02102843947579       -1.25016122140728       -0.49367229784959
H           -3.48363265306387       -0.16796296627621        1.00567404355729
H           -3.55660740557283        0.72527039217678       -0.49533061649773
H           -1.48581556418007       -0.47320764686284       -1.29568146772722
H           -1.41970890714081       -1.35532614741152        0.20118399092126
H           -1.17699900783992        0.83256165648409        1.46147873838301
H           -1.18807285804999        1.69064973328066       -0.05351952286933
H            0.73743389696415        1.59278711573613       -1.57097827336158
H            3.15865505201165        1.18636668804484       -1.81205231086249
H            4.36484372637958       -0.13157226351329       -0.10960544321317
H            3.14412221406917       -1.04485775018311        1.83130917887218
H            0.72298077500786       -0.63599398983218        2.06968578836354
