42
1.44
N           -4.06511  -1.53147  -1.51466
C           -3.96590  -0.04396  -1.44236
C           -2.80009   0.41336  -0.57445
C           -2.67387   1.93578  -0.49602
C           -1.55550   2.41056   0.43658
C           -0.15544   2.01917  -0.03871
C            0.95255   2.54531   0.87439
C            2.36207   2.19147   0.39229
C            2.66232   0.69256   0.42846
C            4.09052   0.35928  -0.00347
C            4.38777  -1.14018   0.03270
C            5.82592  -1.49079  -0.36097
C            6.14491  -1.18149  -1.81671
Cl          -4.26550  -2.67933   1.79360
H           -4.16130  -1.93015  -0.56824
H           -3.21652  -1.93656  -1.93204
H           -4.87449  -1.84210  -2.07446
H           -4.90235   0.37177  -1.05133
H           -3.86310   0.37168  -2.45160
H           -1.87134  -0.02213  -0.95920
H           -2.91093   0.00001   0.43462
H           -3.63445   2.35659  -0.17238
H           -2.50955   2.34017  -1.50187
H           -1.72311   2.00971   1.44341
H           -1.60152   3.50117   0.55210
H            0.00312   2.38713  -1.05929
H           -0.08407   0.92873  -0.11382
H            0.80408   2.15629   1.88899
H            0.85042   3.63393   0.96825
H            3.10912   2.71867   0.99946
H            2.50607   2.56796  -0.62759
H            1.95562   0.15259  -0.21223
H            2.48320   0.30600   1.43904
H            4.80359   0.89175   0.63737
H            4.26542   0.75193  -1.01181
H            3.68873  -1.66590  -0.62895
H            4.16988  -1.52173   1.03864
H            6.01300  -2.55541  -0.16354
H            6.52144  -0.95355   0.29689
H            7.15963  -1.48280  -2.08665
H            6.05855  -0.11490  -2.02969
H            5.45995  -1.70088  -2.48948
