 xtb: 6.5.1 (fef0646)
          01242310033D

 22 21  0     0  0            999 V2000
   -0.3553   -1.2139    1.0489 N   0  0  0  0  0  0  0  0  0  0  0  0
    0.6121   -0.3010    0.3590 C   0  0  0  0  0  0  0  0  0  0  0  0
   -0.0746    1.0083   -0.0702 C   0  0  0  0  0  0  0  0  0  0  0  0
    0.9128    1.9534   -0.7757 C   0  0  0  0  0  0  0  0  0  0  0  0
    2.1308    2.2467    0.1177 C   0  0  0  0  0  0  0  0  0  0  0  0
    2.8207    0.9426    0.5554 C   0  0  0  0  0  0  0  0  0  0  0  0
    1.8267    0.0002    1.2562 C   0  0  0  0  0  0  0  0  0  0  0  0
   -3.0673   -1.7409   -1.0646 Cl  0  0  0  0  0  0  0  0  0  0  0  0
   -0.7068   -0.7756    1.9132 H   0  0  0  0  0  0  0  0  0  0  0  0
    0.0867   -2.1101    1.3080 H   0  0  0  0  0  0  0  0  0  0  0  0
   -1.1709   -1.4166    0.4461 H   0  0  0  0  0  0  0  0  0  0  0  0
    0.9773   -0.8063   -0.5496 H   0  0  0  0  0  0  0  0  0  0  0  0
   -0.4831    1.4979    0.8212 H   0  0  0  0  0  0  0  0  0  0  0  0
   -0.9410    0.7897   -0.7071 H   0  0  0  0  0  0  0  0  0  0  0  0
    0.4136    2.8861   -1.0743 H   0  0  0  0  0  0  0  0  0  0  0  0
    1.2516    1.4916   -1.7119 H   0  0  0  0  0  0  0  0  0  0  0  0
    1.8039    2.8007    1.0070 H   0  0  0  0  0  0  0  0  0  0  0  0
    2.8407    2.9107   -0.3955 H   0  0  0  0  0  0  0  0  0  0  0  0
    3.6809    1.1551    1.2060 H   0  0  0  0  0  0  0  0  0  0  0  0
    3.2388    0.4393   -0.3256 H   0  0  0  0  0  0  0  0  0  0  0  0
    1.4706    0.4620    2.1838 H   0  0  0  0  0  0  0  0  0  0  0  0
    2.3120   -0.9352    1.5621 H   0  0  0  0  0  0  0  0  0  0  0  0
  1  2  1  0  0  0  0
  2  3  1  0  0  0  0
  3  4  1  0  0  0  0
  4  5  1  0  0  0  0
  5  6  1  0  0  0  0
  2  7  1  0  0  0  0
  6  7  1  0  0  0  0
  1  9  1  0  0  0  0
  1 10  1  0  0  0  0
  1 11  1  0  0  0  0
  2 12  1  0  0  0  0
  3 13  1  0  0  0  0
  3 14  1  0  0  0  0
  4 15  1  0  0  0  0
  4 16  1  0  0  0  0
  5 17  1  0  0  0  0
  5 18  1  0  0  0  0
  6 19  1  0  0  0  0
  6 20  1  0  0  0  0
  7 21  1  0  0  0  0
  7 22  1  0  0  0  0
M  END
