37
1.393
N            4.06706   0.91604  -0.20821
C            3.92118  -0.09226   0.87102
C            3.13702   0.48699   2.04183
O            1.87278   1.00629   1.64297
C            0.89416   0.07020   1.34984
C           -0.32801   0.56057   0.81589
C           -0.53159   1.95039   0.60414
C           -1.69154   2.42586   0.09034
C           -1.36558  -0.34033   0.48377
C           -1.19767  -1.73037   0.68658
C            0.01238  -2.18625   1.22489
C            1.02056  -1.31489   1.54621
C           -2.26164  -2.61357   0.34079
C           -3.42312  -2.14604  -0.17524
C           -3.62676  -0.74882  -0.39176
C           -4.81444  -0.23845  -0.92057
C           -4.97525   1.11856  -1.11470
C           -3.96662   2.00259  -0.79085
C           -2.75857   1.54437  -0.25891
C           -2.58657   0.15305  -0.05718
Cl           5.69661  -0.48639  -2.98456
H            3.13906   1.25238  -0.49656
H            4.54504   0.53131  -1.03957
H            4.60230   1.73438   0.12116
H            4.90691  -0.44401   1.19835
H            3.40540  -0.97202   0.47207
H            3.68724   1.33079   2.47345
H            2.99476  -0.22863   2.85908
H            0.26468   2.62453   0.86931
H           -1.82503   3.48332  -0.06123
H            0.14162  -3.24302   1.38610
H            1.92741  -1.70883   1.96678
H           -2.12527  -3.66995   0.49822
H           -4.21621  -2.82774  -0.43096
H           -5.60809  -0.91957  -1.17648
H           -5.89998   1.49209  -1.52388
H           -4.10241   3.05938  -0.94592
