37
0.867
N            5.08461   0.26108   1.69617
C            3.73809   0.88598   1.57530
C            3.42603   1.29847   0.14002
O            2.06240   1.67172  -0.04844
C            1.15151   0.62826  -0.07863
C           -0.22525   0.97495  -0.13388
C           -0.63951   2.33351  -0.15501
C           -1.95021   2.67323  -0.20221
C           -1.20864  -0.04011  -0.16289
C           -0.82995  -1.40306  -0.14157
C            0.53400  -1.71740  -0.09245
C            1.48925  -0.73515  -0.06242
C           -1.84480  -2.40347  -0.17132
C           -3.15696  -2.07182  -0.21825
C           -3.57434  -0.70582  -0.23997
C           -4.91997  -0.33463  -0.28678
C           -5.28506   0.99630  -0.30578
C           -4.32941   1.99115  -0.27909
C           -2.96940   1.67421  -0.23211
C           -2.58756   0.31043  -0.21225
Cl           4.63725  -2.47096  -0.41472
H            5.13091  -0.58170   1.10505
H            5.29736  -0.01782   2.66297
H            5.82294   0.90649   1.37811
H            3.65742   1.75648   2.23597
H            2.97481   0.18497   1.92971
H            3.68241   0.51156  -0.57615
H            4.03545   2.16352  -0.14528
H            0.12181   3.09436  -0.13164
H           -2.24232   3.70929  -0.21730
H            0.82632  -2.75363  -0.07912
H            2.52332  -1.02639  -0.03168
H           -1.54789  -3.43831  -0.15536
H           -3.91016  -2.84080  -0.23971
H           -5.67395  -1.10300  -0.30783
H           -6.32927   1.26159  -0.34166
H           -4.62503   3.02638  -0.29399
