37
0.011
N            4.62287   1.78278   0.38858
C            4.62801   0.88188  -0.79152
C            3.48188  -0.11665  -0.70717
O            2.22243   0.54359  -0.67470
C            1.12429  -0.29302  -0.55339
C           -0.16154   0.31137  -0.55704
C           -0.31283   1.71767  -0.68780
C           -1.53564   2.30089  -0.69327
C           -1.31854  -0.49178  -0.43390
C           -1.20404  -1.89636  -0.30730
C            0.07554  -2.46628  -0.30863
C            1.19907  -1.69022  -0.42849
C           -2.38922  -2.67892  -0.18623
C           -3.61494  -2.10316  -0.19137
C           -3.76696  -0.68850  -0.31853
C           -5.01816  -0.06792  -0.32871
C           -5.12573   1.30234  -0.45454
C           -3.99989   2.09102  -0.57339
C           -2.72440   1.52060  -0.56917
C           -2.60643   0.11510  -0.43988
Cl           4.78715  -0.30288   3.20161
H            5.37847   2.48162   0.35672
H            4.72291   1.23444   1.25636
H            3.71988   2.27704   0.44696
H            5.59113   0.36274  -0.86627
H            4.52691   1.47477  -1.70741
H            3.57552  -0.71213   0.20736
H            3.48839  -0.80160  -1.56320
H            0.57684   2.31483  -0.78838
H           -1.62728   3.36882  -0.79387
H            0.16626  -3.53503  -0.21377
H            2.16126  -2.16901  -0.42720
H           -2.29306  -3.74703  -0.09031
H           -4.49956  -2.70992  -0.09961
H           -5.90331  -0.67413  -0.23732
H           -6.10095   1.76167  -0.46050
H           -4.09482   3.15902  -0.67179
