23
0.589
N           -2.39037   1.80476  -0.56061
C           -1.47687   2.04353   0.59414
C           -0.23992   1.20541   0.51088
C            0.89954   1.68241  -0.11917
C            2.02623   0.89505  -0.23096
C            2.04582  -0.40233   0.27835
C            3.22927  -1.26015   0.17737
C            4.21655  -1.08843  -0.69111
C            0.89525  -0.87606   0.90687
C           -0.22900  -0.08576   1.01637
Cl          -3.05112  -1.64589  -0.60392
H           -3.25942   2.35262  -0.49193
H           -2.64453   0.80349  -0.61159
H           -1.92790   2.04625  -1.44727
H           -1.99819   1.82998   1.53430
H           -1.20159   3.10297   0.64401
H            0.89598   2.68057  -0.52382
H            2.90664   1.29064  -0.70693
H            3.27529  -2.09315   0.86077
H            4.20224  -0.29139  -1.40751
H            5.06126  -1.74964  -0.72392
H            0.89049  -1.87744   1.30392
H           -1.11505  -0.46944   1.49379
