23
 xtb: 6.5.1 (fef0646)
N           -2.39909226328939        1.76300425475432       -0.55518991926525
C           -1.49073748019562        2.02332215051816        0.59901587408101
C           -0.24642936815596        1.19588519198869        0.51989552203920
C            0.87573566322728        1.66185127790991       -0.14974907162433
C            2.00363710446283        0.87746728884524       -0.26887838408972
C            2.04154611558606       -0.40871915031421        0.26908425878635
C            3.21820676737303       -1.27328480906007        0.15728444226591
C            4.23997150921542       -1.07271859370049       -0.66691119475970
C            0.90824697259344       -0.87019847335703        0.93924377122355
C           -0.21532197283867       -0.08096306388068        1.06030677377087
Cl          -3.02488144618800       -1.57483873134726       -0.61936754460610
H           -3.26494969294425        2.33617341046537       -0.49044797836320
H           -2.64143971490457        0.78899761229867       -0.61150908050188
H           -1.93159621254775        2.03836730602371       -1.44553087422155
H           -2.00165611297183        1.82390914310703        1.53592343419654
H           -1.20873093795764        3.09806321110941        0.64390571957307
H            0.88461549756558        2.67128818235519       -0.54086623513306
H            2.89538474543246        1.28364816885862       -0.72806123957773
H            3.26156386265359       -2.10850005297308        0.84159318149365
H            4.22346827326579       -0.27416021407700       -1.38657209462948
H            5.06444630588007       -1.74964076273405       -0.71816001652908
H            0.89828778717530       -1.87292207407720        1.32056728714642
H           -1.10668761347790       -0.46491236075267        1.51717011748732
