 xtb: 6.5.1 (fef0646)
          01242310033D

 23 22  0     0  0            999 V2000
   -2.5100    1.7543   -0.3398 N   0  0  0  0  0  0  0  0  0  0  0  0
   -1.5193    1.9963    0.7411 C   0  0  0  0  0  0  0  0  0  0  0  0
   -0.2430    1.2568    0.4957 C   0  0  0  0  0  0  0  0  0  0  0  0
    0.7738    1.8288   -0.2552 C   0  0  0  0  0  0  0  0  0  0  0  0
    1.9324    1.1277   -0.5220 C   0  0  0  0  0  0  0  0  0  0  0  0
    2.1095   -0.1715   -0.0493 C   0  0  0  0  0  0  0  0  0  0  0  0
    3.3478   -0.8967   -0.3503 C   0  0  0  0  0  0  0  0  0  0  0  0
    3.7876   -1.9536    0.3202 C   0  0  0  0  0  0  0  0  0  0  0  0
    1.0774   -0.7456    0.6909 C   0  0  0  0  0  0  0  0  0  0  0  0
   -0.0800   -0.0418    0.9563 C   0  0  0  0  0  0  0  0  0  0  0  0
   -2.9132   -1.6956   -0.5970 Cl  0  0  0  0  0  0  0  0  0  0  0  0
   -2.6965    0.7423   -0.4353 H   0  0  0  0  0  0  0  0  0  0  0  0
   -2.1474    2.0822   -1.2512 H   0  0  0  0  0  0  0  0  0  0  0  0
   -3.4123    2.2315   -0.1653 H   0  0  0  0  0  0  0  0  0  0  0  0
   -1.9380    1.6936    1.7080 H   0  0  0  0  0  0  0  0  0  0  0  0
   -1.3136    3.0694    0.8299 H   0  0  0  0  0  0  0  0  0  0  0  0
    0.6471    2.8297   -0.6345 H   0  0  0  0  0  0  0  0  0  0  0  0
    2.7170    1.5847   -1.1028 H   0  0  0  0  0  0  0  0  0  0  0  0
    3.9346   -0.5199   -1.1733 H   0  0  0  0  0  0  0  0  0  0  0  0
    3.2524   -2.3476    1.1623 H   0  0  0  0  0  0  0  0  0  0  0  0
    4.7051   -2.4470    0.0588 H   0  0  0  0  0  0  0  0  0  0  0  0
    1.1780   -1.7578    1.0453 H   0  0  0  0  0  0  0  0  0  0  0  0
   -0.8754   -0.5019    1.5200 H   0  0  0  0  0  0  0  0  0  0  0  0
  1  2  1  0  0  0  0
  2  3  1  0  0  0  0
  3  4  4  0  0  0  0
  4  5  4  0  0  0  0
  5  6  4  0  0  0  0
  6  7  1  0  0  0  0
  7  8  2  0  0  0  0
  6  9  4  0  0  0  0
  3 10  4  0  0  0  0
  9 10  4  0  0  0  0
  1 12  1  0  0  0  0
  1 13  1  0  0  0  0
  1 14  1  0  0  0  0
  2 15  1  0  0  0  0
  2 16  1  0  0  0  0
  4 17  1  0  0  0  0
  5 18  1  0  0  0  0
  7 19  1  0  0  0  0
  8 20  1  0  0  0  0
  8 21  1  0  0  0  0
  9 22  1  0  0  0  0
 10 23  1  0  0  0  0
M  END
