22

N          3.07426       -0.40090       -1.40607
C          2.34490        0.12775       -0.21276
C          0.85537        0.08824       -0.53279
C          2.87579        1.50135        0.13399
C          3.53608        1.69637        1.35780
C          4.06036        2.94246        1.69778
C          3.93484        4.01204        0.81676
C          3.28237        3.83969       -0.40149
C          2.75012        2.59287       -0.74218
Cl         1.24434       -1.02532        3.01707
H          4.07793       -0.38632       -1.20088
H          2.89502        0.17414       -2.23388
H          2.79004       -1.36865       -1.58124
H          2.59543       -0.59138        0.56610
H          0.60428        0.68967       -1.41201
H          0.25994        0.47039        0.30408
H          0.52999       -0.93946       -0.73367
H          3.62596        0.88198        2.08051
H          4.54104        3.07861        2.66217
H          4.33221        4.98688        1.09126
H          3.17147        4.68462       -1.07643
H          2.22281        2.50395       -1.68816
