19
0.0
N           -0.08040  -0.63082  -1.34018
C            0.54184  -1.67740  -0.48609
C            0.84184  -1.17895   0.92689
C            2.04546  -0.23308   1.05008
C            1.81379   1.19203   0.52846
O            1.99356   1.35022  -0.86915
Cl          -3.01588   0.41378   0.23074
H           -0.23903  -0.94237  -2.30767
H            0.55645   0.18342  -1.35061
H           -0.97763  -0.31562  -0.94221
H            1.46540  -2.04065  -0.95180
H           -0.12744  -2.54653  -0.44939
H            1.00245  -2.04684   1.58073
H           -0.04914  -0.68392   1.32914
H            2.91001  -0.66910   0.53927
H            2.33948  -0.17594   2.10689
H            2.47377   1.91121   1.03381
H            0.79398   1.51649   0.76647
H            2.92786   1.19936  -1.11365
