 xtb: 6.5.1 (fef0646)
          01242317123D

 19 17  0     0  0            999 V2000
   -0.0804   -0.6308   -1.3402 N   0  0  0  0  0  0  0  0  0  0  0  0
    0.5418   -1.6774   -0.4861 C   0  0  0  0  0  0  0  0  0  0  0  0
    0.8418   -1.1790    0.9269 C   0  0  0  0  0  0  0  0  0  0  0  0
    2.0455   -0.2331    1.0501 C   0  0  0  0  0  0  0  0  0  0  0  0
    1.8138    1.1920    0.5285 C   0  0  0  0  0  0  0  0  0  0  0  0
    1.9936    1.3502   -0.8692 O   0  0  0  0  0  0  0  0  0  0  0  0
   -3.0159    0.4138    0.2307 Cl  0  0  0  0  0  0  0  0  0  0  0  0
   -0.2390   -0.9424   -2.3077 H   0  0  0  0  0  0  0  0  0  0  0  0
    0.5564    0.1834   -1.3506 H   0  0  0  0  0  0  0  0  0  0  0  0
   -0.9776   -0.3156   -0.9422 H   0  0  0  0  0  0  0  0  0  0  0  0
    1.4654   -2.0407   -0.9518 H   0  0  0  0  0  0  0  0  0  0  0  0
   -0.1275   -2.5465   -0.4494 H   0  0  0  0  0  0  0  0  0  0  0  0
    1.0024   -2.0468    1.5807 H   0  0  0  0  0  0  0  0  0  0  0  0
   -0.0491   -0.6839    1.3291 H   0  0  0  0  0  0  0  0  0  0  0  0
    2.9100   -0.6691    0.5393 H   0  0  0  0  0  0  0  0  0  0  0  0
    2.3395   -0.1759    2.1069 H   0  0  0  0  0  0  0  0  0  0  0  0
    2.4738    1.9112    1.0338 H   0  0  0  0  0  0  0  0  0  0  0  0
    0.7940    1.5165    0.7665 H   0  0  0  0  0  0  0  0  0  0  0  0
    2.9279    1.1993   -1.1137 H   0  0  0  0  0  0  0  0  0  0  0  0
  1  2  1  0  0  0  0
  2  3  1  0  0  0  0
  3  4  1  0  0  0  0
  4  5  1  0  0  0  0
  5  6  1  0  0  0  0
  1  8  1  0  0  0  0
  1  9  1  0  0  0  0
  1 10  1  0  0  0  0
  2 11  1  0  0  0  0
  2 12  1  0  0  0  0
  3 13  1  0  0  0  0
  3 14  1  0  0  0  0
  4 15  1  0  0  0  0
  4 16  1  0  0  0  0
  5 17  1  0  0  0  0
  5 18  1  0  0  0  0
  6 19  1  0  0  0  0
M  END
