  18

 N         -3.2170941402        1.1701947051       -0.0182846730
 C         -2.0668466259        0.2808357979        0.0077210476
 C         -0.7341794474        1.0226461188       -0.0029380975
 C          0.4739140244        0.0840333626        0.0222561675
 C          1.8000293651        0.8201074720        0.0056842296
 Br         3.3101042156       -0.3689154026        0.0442030400
 Cl        -5.7628353551       -0.9790228049        0.0257557355
 H         -4.7471450775       -0.1139152057        0.0082631652
 H         -3.1693551249        1.7608280490       -0.8410917685
 H         -3.1775622748        1.8004470177        0.7755316089
 H         -2.1251007537       -0.4027365649       -0.8477732032
 H         -2.1335496851       -0.3627647888        0.8930483777
 H         -0.6885677437        1.7062986287        0.8524103911
 H         -0.6815766426        1.6683290252       -0.8868807300
 H          0.4286943209       -0.6040405860       -0.8309345002
 H          0.4261646726       -0.5605404882        0.9086415142
 H          1.8896547281        1.4877011660        0.8648129352
 H          1.8952567561        1.4383016028       -0.8891233212
          18
        -25.72178730
 N         -2.2374753754       -1.5963777512        0.9378522787
 C         -1.7076656939       -2.1055499773       -0.3198089995
 C         -0.3407596217       -1.5182760867       -0.6660404850
 C         -0.3624858163        0.0021480599       -0.7977142196
 C          1.0039481262        0.5811118020       -1.1170576221
 Br         2.2832546610        0.2486283870        0.2771106946
 Cl        -3.4818292242        1.3829520085        0.1085702013
 H         -2.9991731761        0.1878438359        0.4514614537
 H         -1.5409231153       -1.7024570458        1.6665537393
 H         -3.0418308562       -2.1402677117        1.2352031643
 H         -2.4217272756       -1.8677949596       -1.1171395797
 H         -1.6497465359       -3.2017273487       -0.2864700748
 H          0.0406371545       -1.9600493353       -1.5948200725
 H          0.3825956369       -1.8020282850        0.1069573993
 H         -0.7258550026        0.4405718621        0.1395881832
 H         -1.0927079520        0.2953439863       -1.5634824390
 H          0.9629337958        1.6636173194       -1.2582079918
 H          1.4089345984        0.1494784010       -2.0342772243
