19
2.635
N           -0.31264  -1.57695  -0.44986
C           -1.09775  -1.01920   0.68780
C           -1.90287   0.22282   0.29655
C           -1.06838   1.42904   0.02093
C           -1.43281   2.71133   0.27784
C           -0.45410   3.67987  -0.10282
C            0.65460   3.13606  -0.65099
S            0.51583   1.41554  -0.70425
Cl           1.71244  -4.21823   0.61718
H            0.28968  -2.36939  -0.16180
H            0.29053  -0.84085  -0.83544
H           -0.92999  -1.89987  -1.20739
H           -0.42126  -0.76558   1.51229
H           -1.76255  -1.79834   1.08089
H           -2.62230   0.46802   1.08691
H           -2.50466   0.00149  -0.59111
H           -2.38037   2.97223   0.72367
H           -0.59197   4.74249   0.03363
H            1.50928   3.68043  -1.00577
