19
 xtb: 6.5.1 (fef0646)
N           -3.78993495532405       -1.36874336766901       -0.27543432704689
C           -3.54593476971839       -0.11119226083357        0.49386925129425
C           -2.48867697886147        0.78269275598736       -0.16145773362201
C           -1.10071226721662        0.23213860518832       -0.10703345237531
C            0.03409574960160        0.97603431230638       -0.08303946773611
C            1.23520035896100        0.20226922418561       -0.04253674480748
C            1.01405017995551       -1.12891139658220       -0.04093747237211
S           -0.67854623644962       -1.45412616782067       -0.03798388575091
Cl           4.30306859515532        1.56299129631935        0.15271517899161
H           -2.91778079638006       -1.88411263086292       -0.32592864516836
H           -4.17541799610350       -1.20575183147688       -1.16850242868372
H           -4.47100963838126       -1.98618680683235        0.27591039004116
H           -3.23136577995433       -0.30793638254498        1.52200853117013
H           -4.49843549542055        0.45440959474855        0.59142962652661
H           -2.50352127160957        1.77999147058204        0.23498901724558
H           -2.76732353439599        0.90048397415408       -1.24919013996889
H            0.01239618157849        2.05054282092832       -0.06249948367606
H            2.20689483986130        0.64233099999273        0.03510543941512
H            1.76291727543313       -1.89220126337609       -0.00126297029718
