24
 xtb: 6.5.1 (fef0646)
N            1.00851584305974       -2.00957055779895        1.10855956096290
C           -0.04993912884263       -2.36787806638374        0.11810754727105
C           -0.57154762207901       -1.14445695821342       -0.63272985800552
C           -1.31954865910184       -0.15777272939384        0.26246608666303
C           -1.81723029194295        1.07287925821307       -0.49600420225619
C           -2.56230921942758        2.06643420153698        0.39640049911520
C           -3.04821225374581        3.29025158497287       -0.36418468208566
Cl           3.25760066446661       -0.25738295571061       -0.21313176671912
H            0.51748803546205       -1.50128818240144        1.91798928639706
H            1.71022925691732       -1.52177224313797        0.75047709502686
H            1.32092939514894       -2.92148807629423        1.59081980180296
H           -0.94509477868977       -2.90227312251652        0.57916390595697
H            0.33530434334437       -3.11114622522952       -0.59103404076431
H           -1.21830075480312       -1.43653068098366       -1.46707526178524
H            0.28706166579024       -0.64419829706760       -1.08478471251931
H           -0.67573667229833        0.15963717446461        1.09284957793009
H           -2.16977360862507       -0.66412946241083        0.74438678265322
H           -2.46638453180836        0.75790149400018       -1.32097529715851
H           -0.96724805847012        1.57255840133965       -0.97606493399906
H           -1.90729384208221        2.37161085483417        1.22447294414066
H           -3.40783159918654        1.55783793276236        0.87807679593397
H           -2.21528531763946        3.82694085642799       -0.82269267248815
H           -3.57884614552691        3.99206335406187        0.28122787937293
H           -3.72942335277452        3.00615521550760       -1.17149984129569
