40

N          2.21626        0.88695       -1.39040
C          2.47453       -0.47181       -1.89957
C          3.78155       -0.52984       -2.68801
C          4.98707       -0.12170       -1.88767
C          5.25164       -0.30457       -0.54469
C          6.50313        0.25358       -0.15700
C          7.20418        0.79306       -1.21858
C          8.51774        1.39471       -1.18749
C          9.46770        1.41472       -2.18989
C         10.67215        2.06990       -1.79270
C         10.61366        2.56464       -0.50341
C         11.63393        3.29548        0.21565
C         11.45997        4.19711        1.24836
C         12.68941        4.75803        1.70401
C         13.78882        4.25800        1.03208
C         15.18022        4.59489        1.24066
C         16.29574        3.81883        0.97429
C         17.51784        4.45989        1.33622
C         17.30497        5.71672        1.85192
S         15.64569        6.11537        1.89899
S         13.30081        3.11841       -0.15412
S          9.09646        2.20258        0.21072
S          6.29944        0.65761       -2.67064
Cl        -0.19437        0.70718        0.19903
H          1.32485        0.84116       -0.80986
H          2.00188        1.59574       -2.09390
H          2.90388        1.24094       -0.72129
H          1.62552       -0.74132       -2.53489
H          2.49347       -1.14133       -1.03351
H          3.68267        0.10374       -3.57872
H          3.93220       -1.55640       -3.04456
H          4.58501       -0.80322        0.15252
H          6.88122        0.22658        0.85895
H          9.32603        0.96358       -3.16467
H         11.53476        2.17842       -2.43949
H         10.49402        4.46769        1.65786
H         12.75279        5.49093        2.49947
H         16.24670        2.82056        0.55602
H         18.50064        4.01820        1.22602
H         18.04389        6.42248        2.20589
