 xtb: 6.5.1 (fef0646)
          01242315403D

 40 42  0     0  0            999 V2000
    2.0543    0.7281   -1.9648 N   0  0  0  0  0  0  0  0  0  0  0  0
    2.5438   -0.6640   -1.9172 C   0  0  0  0  0  0  0  0  0  0  0  0
    3.9299   -0.7765   -2.5408 C   0  0  0  0  0  0  0  0  0  0  0  0
    4.9855   -0.0542   -1.7667 C   0  0  0  0  0  0  0  0  0  0  0  0
    4.9439    0.4759   -0.5102 C   0  0  0  0  0  0  0  0  0  0  0  0
    6.1610    1.0594   -0.1112 C   0  0  0  0  0  0  0  0  0  0  0  0
    7.1419    0.9796   -1.0654 C   0  0  0  0  0  0  0  0  0  0  0  0
    8.4847    1.4480   -1.0018 C   0  0  0  0  0  0  0  0  0  0  0  0
    9.4708    1.3512   -1.9548 C   0  0  0  0  0  0  0  0  0  0  0  0
   10.6864    1.9149   -1.5555 C   0  0  0  0  0  0  0  0  0  0  0  0
   10.6515    2.4526   -0.2905 C   0  0  0  0  0  0  0  0  0  0  0  0
   11.6970    3.0922    0.4294 C   0  0  0  0  0  0  0  0  0  0  0  0
   11.6612    3.6234    1.6976 C   0  0  0  0  0  0  0  0  0  0  0  0
   12.8801    4.1743    2.1045 C   0  0  0  0  0  0  0  0  0  0  0  0
   13.8696    4.0744    1.1558 C   0  0  0  0  0  0  0  0  0  0  0  0
   15.2198    4.5222    1.2341 C   0  0  0  0  0  0  0  0  0  0  0  0
   16.2068    4.4303    0.2858 C   0  0  0  0  0  0  0  0  0  0  0  0
   17.4301    4.9836    0.7071 C   0  0  0  0  0  0  0  0  0  0  0  0
   17.3720    5.4918    1.9660 C   0  0  0  0  0  0  0  0  0  0  0  0
   15.8154    5.3058    2.6722 S   0  0  0  0  0  0  0  0  0  0  0  0
   13.2793    3.2809   -0.2780 S   0  0  0  0  0  0  0  0  0  0  0  0
    9.0742    2.2584    0.4256 S   0  0  0  0  0  0  0  0  0  0  0  0
    6.5518    0.1705   -2.4885 S   0  0  0  0  0  0  0  0  0  0  0  0
   -0.0087    0.9855    0.2451 Cl  0  0  0  0  0  0  0  0  0  0  0  0
    1.2519    0.8452   -1.2946 H   0  0  0  0  0  0  0  0  0  0  0  0
    1.7494    0.9907   -2.9040 H   0  0  0  0  0  0  0  0  0  0  0  0
    2.7899    1.3686   -1.6537 H   0  0  0  0  0  0  0  0  0  0  0  0
    1.8420   -1.3012   -2.4522 H   0  0  0  0  0  0  0  0  0  0  0  0
    2.5626   -0.9873   -0.8775 H   0  0  0  0  0  0  0  0  0  0  0  0
    3.9191   -0.3982   -3.5646 H   0  0  0  0  0  0  0  0  0  0  0  0
    4.2032   -1.8326   -2.5983 H   0  0  0  0  0  0  0  0  0  0  0  0
    4.0847    0.4507    0.1356 H   0  0  0  0  0  0  0  0  0  0  0  0
    6.3236    1.5249    0.8450 H   0  0  0  0  0  0  0  0  0  0  0  0
    9.3119    0.8832   -2.9102 H   0  0  0  0  0  0  0  0  0  0  0  0
   11.5734    1.9340   -2.1635 H   0  0  0  0  0  0  0  0  0  0  0  0
   10.7735    3.6087    2.3052 H   0  0  0  0  0  0  0  0  0  0  0  0
   13.0440    4.6342    3.0629 H   0  0  0  0  0  0  0  0  0  0  0  0
   16.0452    3.9780   -0.6766 H   0  0  0  0  0  0  0  0  0  0  0  0
   18.3154    5.0027    0.0986 H   0  0  0  0  0  0  0  0  0  0  0  0
   18.1458    5.9677    2.5334 H   0  0  0  0  0  0  0  0  0  0  0  0
  1  2  1  0  0  0  0
  2  3  1  0  0  0  0
  3  4  1  0  0  0  0
  4  5  2  0  0  0  0
  5  6  4  0  0  0  0
  6  7  2  0  0  0  0
  7  8  1  0  0  0  0
  8  9  4  0  0  0  0
  9 10  4  0  0  0  0
 10 11  4  0  0  0  0
 11 12  1  0  0  0  0
 12 13  4  0  0  0  0
 13 14  4  0  0  0  0
 14 15  4  0  0  0  0
 15 16  1  0  0  0  0
 16 17  2  0  0  0  0
 17 18  4  0  0  0  0
 18 19  2  0  0  0  0
 16 20  1  0  0  0  0
 19 20  1  0  0  0  0
 12 21  1  0  0  0  0
 15 21  1  0  0  0  0
  8 22  1  0  0  0  0
 11 22  1  0  0  0  0
  4 23  1  0  0  0  0
  7 23  1  0  0  0  0
  1 25  1  0  0  0  0
  1 26  1  0  0  0  0
  1 27  1  0  0  0  0
  2 28  1  0  0  0  0
  2 29  1  0  0  0  0
  3 30  1  0  0  0  0
  3 31  1  0  0  0  0
  5 32  1  0  0  0  0
  6 33  1  0  0  0  0
  9 34  1  0  0  0  0
 10 35  1  0  0  0  0
 13 36  1  0  0  0  0
 14 37  1  0  0  0  0
 17 38  1  0  0  0  0
 18 39  1  0  0  0  0
 19 40  1  0  0  0  0
M  END
