18

N          1.22206        0.12987       -0.27343
C          2.68334        0.07237       -0.23287
C          3.15882       -1.24717       -0.82306
C          4.68571       -1.33341       -0.79216
C          5.17795       -2.64357       -1.38453
Br         7.12206       -2.69674       -1.32034
Cl        -0.13456       -0.52048        2.13650
H          0.84018        1.01715        0.08445
H          0.81727       -0.48299        0.49512
H          0.74014       -0.13128       -1.13222
H          2.98937        0.18758        0.81156
H          3.05035        0.92513       -0.81123
H          2.80794       -1.33882       -1.85812
H          2.73051       -2.08723       -0.26202
H          5.03691       -1.23482        0.24300
H          5.11007       -0.48868       -1.34972
H          4.89785       -2.74632       -2.43635
H          4.81880       -3.50968       -0.82267
