 xtb: 6.5.1 (fef0646)
          01242314583D

 28 29  0     0  0            999 V2000
    3.8614    0.1063    1.5465 N   0  0  0  0  0  0  0  0  0  0  0  0
    2.8325    0.4933    0.5547 C   0  0  0  0  0  0  0  0  0  0  0  0
    3.3445    1.6736   -0.2631 C   0  0  0  0  0  0  0  0  0  0  0  0
    4.5392    1.2190   -0.8943 O   0  0  0  0  0  0  0  0  0  0  0  0
    5.2019    2.0503   -1.7450 C   0  0  0  0  0  0  0  0  0  0  0  0
    4.8495    3.3540   -1.9887 C   0  0  0  0  0  0  0  0  0  0  0  0
    5.6199    4.1436   -2.8563 C   0  0  0  0  0  0  0  0  0  0  0  0
    6.7305    3.6389   -3.4678 C   0  0  0  0  0  0  0  0  0  0  0  0
    7.1161    2.2989   -3.2486 C   0  0  0  0  0  0  0  0  0  0  0  0
    8.2512    1.7387   -3.8704 C   0  0  0  0  0  0  0  0  0  0  0  0
    8.6001    0.4342   -3.6549 C   0  0  0  0  0  0  0  0  0  0  0  0
    7.8233   -0.3740   -2.8123 C   0  0  0  0  0  0  0  0  0  0  0  0
    6.7193    0.1401   -2.1905 C   0  0  0  0  0  0  0  0  0  0  0  0
    6.3429    1.4841   -2.3844 C   0  0  0  0  0  0  0  0  0  0  0  0
    3.6179   -0.7748    2.0120 H   0  0  0  0  0  0  0  0  0  0  0  0
    3.9815    0.8383    2.2564 H   0  0  0  0  0  0  0  0  0  0  0  0
    4.7542   -0.0074    1.0485 H   0  0  0  0  0  0  0  0  0  0  0  0
    1.9038    0.7646    1.0537 H   0  0  0  0  0  0  0  0  0  0  0  0
    2.6519   -0.3454   -0.1176 H   0  0  0  0  0  0  0  0  0  0  0  0
    3.5631    2.5369    0.3760 H   0  0  0  0  0  0  0  0  0  0  0  0
    2.6003    1.9659   -1.0100 H   0  0  0  0  0  0  0  0  0  0  0  0
    3.9844    3.8018   -1.5280 H   0  0  0  0  0  0  0  0  0  0  0  0
    5.3204    5.1664   -3.0295 H   0  0  0  0  0  0  0  0  0  0  0  0
    7.3259    4.2514   -4.1286 H   0  0  0  0  0  0  0  0  0  0  0  0
    8.8408    2.3637   -4.5261 H   0  0  0  0  0  0  0  0  0  0  0  0
    9.4718    0.0177   -4.1380 H   0  0  0  0  0  0  0  0  0  0  0  0
    8.1053   -1.4053   -2.6632 H   0  0  0  0  0  0  0  0  0  0  0  0
    6.1118   -0.4851   -1.5576 H   0  0  0  0  0  0  0  0  0  0  0  0
  1  2  1  0  0  0  0
  2  3  1  0  0  0  0
  3  4  1  0  0  0  0
  4  5  1  0  0  0  0
  5  6  4  0  0  0  0
  6  7  4  0  0  0  0
  7  8  2  0  0  0  0
  8  9  4  0  0  0  0
  9 10  4  0  0  0  0
 10 11  2  0  0  0  0
 11 12  4  0  0  0  0
 12 13  2  0  0  0  0
  5 14  4  0  0  0  0
  9 14  4  0  0  0  0
 13 14  4  0  0  0  0
  1 15  1  0  0  0  0
  1 16  1  0  0  0  0
  1 17  1  0  0  0  0
  2 18  1  0  0  0  0
  2 19  1  0  0  0  0
  3 20  1  0  0  0  0
  3 21  1  0  0  0  0
  6 22  1  0  0  0  0
  7 23  1  0  0  0  0
  8 24  1  0  0  0  0
 10 25  1  0  0  0  0
 11 26  1  0  0  0  0
 12 27  1  0  0  0  0
 13 28  1  0  0  0  0
M  CHG  1   1   1
M  END
