 xtb: 6.5.1 (fef0646)
          01242310093D

 28 27  0     0  0            999 V2000
   -2.8870   -0.7760   -0.5300 N   0  0  0  0  0  0  0  0  0  0  0  0
   -1.5131   -0.5296   -1.0562 C   0  0  0  0  0  0  0  0  0  0  0  0
   -0.4787   -0.4816    0.0593 C   0  0  0  0  0  0  0  0  0  0  0  0
    0.9476   -0.1462   -0.4186 C   0  0  0  0  0  0  0  0  0  0  0  0
    1.5451   -1.2522   -1.3223 C   0  0  0  0  0  0  0  0  0  0  0  0
    2.9675   -0.8957   -1.7889 C   0  0  0  0  0  0  0  0  0  0  0  0
    3.8927   -0.6236   -0.5905 C   0  0  0  0  0  0  0  0  0  0  0  0
    3.3129    0.4787    0.3115 C   0  0  0  0  0  0  0  0  0  0  0  0
    1.8939    0.1170    0.7792 C   0  0  0  0  0  0  0  0  0  0  0  0
   -3.5591    1.6870    1.8339 Cl  0  0  0  0  0  0  0  0  0  0  0  0
   -3.1514   -0.0458    0.1559 H   0  0  0  0  0  0  0  0  0  0  0  0
   -2.9391   -1.6859   -0.0415 H   0  0  0  0  0  0  0  0  0  0  0  0
   -3.6007   -0.7794   -1.2792 H   0  0  0  0  0  0  0  0  0  0  0  0
   -1.4963    0.4111   -1.6163 H   0  0  0  0  0  0  0  0  0  0  0  0
   -1.2545   -1.3089   -1.7833 H   0  0  0  0  0  0  0  0  0  0  0  0
   -0.4635   -1.4393    0.5922 H   0  0  0  0  0  0  0  0  0  0  0  0
   -0.7932    0.2563    0.8071 H   0  0  0  0  0  0  0  0  0  0  0  0
    0.8991    0.7798   -1.0143 H   0  0  0  0  0  0  0  0  0  0  0  0
    0.8912   -1.4418   -2.1829 H   0  0  0  0  0  0  0  0  0  0  0  0
    1.5662   -2.1925   -0.7591 H   0  0  0  0  0  0  0  0  0  0  0  0
    2.9269   -0.0029   -2.4259 H   0  0  0  0  0  0  0  0  0  0  0  0
    3.3789   -1.6906   -2.4268 H   0  0  0  0  0  0  0  0  0  0  0  0
    4.9043   -0.3599   -0.9292 H   0  0  0  0  0  0  0  0  0  0  0  0
    4.0114   -1.5454   -0.0068 H   0  0  0  0  0  0  0  0  0  0  0  0
    3.2815    1.4242   -0.2450 H   0  0  0  0  0  0  0  0  0  0  0  0
    3.9712    0.6676    1.1712 H   0  0  0  0  0  0  0  0  0  0  0  0
    1.4788    0.9011    1.4261 H   0  0  0  0  0  0  0  0  0  0  0  0
    1.9301   -0.7848    1.4017 H   0  0  0  0  0  0  0  0  0  0  0  0
  1  2  1  0  0  0  0
  2  3  1  0  0  0  0
  3  4  1  0  0  0  0
  4  5  1  0  0  0  0
  5  6  1  0  0  0  0
  6  7  1  0  0  0  0
  7  8  1  0  0  0  0
  4  9  1  0  0  0  0
  8  9  1  0  0  0  0
  1 11  1  0  0  0  0
  1 12  1  0  0  0  0
  1 13  1  0  0  0  0
  2 14  1  0  0  0  0
  2 15  1  0  0  0  0
  3 16  1  0  0  0  0
  3 17  1  0  0  0  0
  4 18  1  0  0  0  0
  5 19  1  0  0  0  0
  5 20  1  0  0  0  0
  6 21  1  0  0  0  0
  6 22  1  0  0  0  0
  7 23  1  0  0  0  0
  7 24  1  0  0  0  0
  8 25  1  0  0  0  0
  8 26  1  0  0  0  0
  9 27  1  0  0  0  0
  9 28  1  0  0  0  0
M  END
