25

N          1.22047        0.03334       -0.40619
C          2.58331        0.11081        0.10661
C          2.90154       -0.96478        1.15561
C          2.76723       -2.39023        0.59107
C          3.03610       -3.45831        1.64641
C          2.14554       -3.26090        2.86664
C          2.35465       -1.87706        3.47245
C          2.09374       -0.77248        2.45102
Cl        -1.29813       -1.17818       -0.04644
H          0.95467        0.70302       -1.13156
H          0.45259        0.10326        0.30086
H          0.91267       -0.88995       -0.77239
H          2.70642        1.11546        0.52397
H          3.24710        0.01399       -0.75854
H          3.95932       -0.82973        1.42370
H          3.46607       -2.52283       -0.24340
H          1.76319       -2.55766        0.18945
H          4.09005       -3.42283        1.94789
H          2.85956       -4.45139        1.21660
H          2.36918       -4.02987        3.61390
H          1.09362       -3.38522        2.58055
H          3.38083       -1.79352        3.85021
H          1.68700       -1.74641        4.33130
H          2.34743        0.19635        2.90020
H          1.02126       -0.74608        2.23925
