 xtb: 6.5.1 (fef0646)
          01242314583D

 40 41  0     0  0            999 V2000
   13.2219    5.6429    0.4176 N   0  0  0  0  0  0  0  0  0  0  0  0
   14.1801    4.5404    0.6780 C   0  0  0  0  0  0  0  0  0  0  0  0
   13.5154    3.1831    0.4820 C   0  0  0  0  0  0  0  0  0  0  0  0
   13.2006    2.8766   -0.9822 C   0  0  0  0  0  0  0  0  0  0  0  0
   12.4579    1.5431   -1.1264 C   0  0  0  0  0  0  0  0  0  0  0  0
   11.1562    1.6092   -0.4899 N   0  0  0  0  0  0  0  0  0  0  0  0
   10.7775    0.5822    0.4809 C   0  0  0  0  0  0  0  0  0  0  0  0
    9.1941    0.7997    0.6254 C   0  0  0  0  0  0  0  0  0  0  0  0
    9.2615    1.5929    1.8736 C   0  0  0  0  0  0  0  0  0  0  0  0
    9.6583    0.8914    2.9837 C   0  0  0  0  0  0  0  0  0  0  0  0
   11.1104    0.8631    3.0139 C   0  0  0  0  0  0  0  0  0  0  0  0
   11.5892    0.6887    1.7667 C   0  0  0  0  0  0  0  0  0  0  0  0
   10.0465    1.9967   -1.2142 C   0  0  0  0  0  0  0  0  0  0  0  0
    8.8587    1.5592   -0.6129 C   0  0  0  0  0  0  0  0  0  0  0  0
    7.6334    1.8744   -1.1495 C   0  0  0  0  0  0  0  0  0  0  0  0
    7.5844    2.6377   -2.3126 C   0  0  0  0  0  0  0  0  0  0  0  0
    8.7552    3.0678   -2.9104 C   0  0  0  0  0  0  0  0  0  0  0  0
    9.9972    2.7588   -2.3730 C   0  0  0  0  0  0  0  0  0  0  0  0
    9.6287   -2.9531    0.4887 Cl  0  0  0  0  0  0  0  0  0  0  0  0
   13.6643    6.5563    0.5680 H   0  0  0  0  0  0  0  0  0  0  0  0
   12.4124    5.5545    1.0428 H   0  0  0  0  0  0  0  0  0  0  0  0
   12.8830    5.5916   -0.5495 H   0  0  0  0  0  0  0  0  0  0  0  0
   14.5371    4.6211    1.7039 H   0  0  0  0  0  0  0  0  0  0  0  0
   15.0283    4.6373    0.0007 H   0  0  0  0  0  0  0  0  0  0  0  0
   12.5940    3.1188    1.0626 H   0  0  0  0  0  0  0  0  0  0  0  0
   14.1857    2.4129    0.8628 H   0  0  0  0  0  0  0  0  0  0  0  0
   14.1216    2.8183   -1.5632 H   0  0  0  0  0  0  0  0  0  0  0  0
   12.5607    3.6458   -1.4126 H   0  0  0  0  0  0  0  0  0  0  0  0
   13.0300    0.7372   -0.6621 H   0  0  0  0  0  0  0  0  0  0  0  0
   12.3424    1.2912   -2.1889 H   0  0  0  0  0  0  0  0  0  0  0  0
   10.9558   -0.4277    0.0641 H   0  0  0  0  0  0  0  0  0  0  0  0
    8.6886   -0.1617    0.7324 H   0  0  0  0  0  0  0  0  0  0  0  0
    9.7628    2.5444    1.7134 H   0  0  0  0  0  0  0  0  0  0  0  0
    9.1506   -0.0258    3.2660 H   0  0  0  0  0  0  0  0  0  0  0  0
   11.7305    0.7695    3.8935 H   0  0  0  0  0  0  0  0  0  0  0  0
   12.6406    0.4699    1.6329 H   0  0  0  0  0  0  0  0  0  0  0  0
    6.7265    1.5192   -0.6805 H   0  0  0  0  0  0  0  0  0  0  0  0
    6.6287    2.8834   -2.7508 H   0  0  0  0  0  0  0  0  0  0  0  0
    8.7037    3.6507   -3.8181 H   0  0  0  0  0  0  0  0  0  0  0  0
   10.8930    3.0830   -2.8771 H   0  0  0  0  0  0  0  0  0  0  0  0
  1  2  1  0  0  0  0
  2  3  1  0  0  0  0
  3  4  1  0  0  0  0
  4  5  1  0  0  0  0
  5  6  1  0  0  0  0
  6  7  1  0  0  0  0
  7  8  1  0  0  0  0
  8  9  1  0  0  0  0
  9 10  2  0  0  0  0
 10 11  1  0  0  0  0
  7 12  1  0  0  0  0
 11 12  2  0  0  0  0
  6 13  1  0  0  0  0
  8 14  1  0  0  0  0
 13 14  4  0  0  0  0
 14 15  4  0  0  0  0
 15 16  4  0  0  0  0
 16 17  4  0  0  0  0
 13 18  4  0  0  0  0
 17 18  4  0  0  0  0
  1 20  1  0  0  0  0
  1 21  1  0  0  0  0
  1 22  1  0  0  0  0
  2 23  1  0  0  0  0
  2 24  1  0  0  0  0
  3 25  1  0  0  0  0
  3 26  1  0  0  0  0
  4 27  1  0  0  0  0
  4 28  1  0  0  0  0
  5 29  1  0  0  0  0
  5 30  1  0  0  0  0
  7 31  1  0  0  0  0
  8 32  1  0  0  0  0
  9 33  1  0  0  0  0
 10 34  1  0  0  0  0
 11 35  1  0  0  0  0
 12 36  1  0  0  0  0
 15 37  1  0  0  0  0
 16 38  1  0  0  0  0
 17 39  1  0  0  0  0
 18 40  1  0  0  0  0
M  END
