25
0.435
N            3.91322  -1.23612   0.92554
C            4.25581   0.17798   0.60425
C            3.48124   0.70499  -0.60296
C            2.02262   0.84697  -0.34275
C            1.38219   2.00314   0.04966
C            0.00220   1.86490   0.21846
C           -0.46972   0.57998  -0.03855
C           -1.80591   0.13582   0.03330
C           -2.92664   0.89106   0.37436
C           -4.12148   0.16674   0.35257
C           -3.96280  -1.14958   0.00025
S           -2.31836  -1.49537  -0.30644
S            0.87970  -0.43008  -0.47878
H            4.37721  -1.56235   1.78732
H            4.19388  -1.86821   0.16095
H            2.89594  -1.34035   1.05124
H            5.33715   0.25271   0.43095
H            4.04764   0.81010   1.47596
H            3.62446   0.02882  -1.45285
H            3.88220   1.67389  -0.92376
H            1.90472   2.93633   0.20182
H           -0.64013   2.68051   0.51402
H           -2.87732   1.93928   0.62811
H           -5.08244   0.60315   0.59000
H           -4.75141  -1.87622  -0.07808
