  14

 N         -1.8736274752        0.1325735925       -0.0001544649
 C         -0.5235591681       -0.5059432585        0.0003189712
 C          0.6195508974        0.5072396948        0.0001554079
 C          2.0037235047       -0.1316101414       -0.0001292158
 H         -2.6267132213       -0.5712440651        0.0000736473
 H         -2.0065996780        0.7258478256       -0.8315157320
 H         -2.0067976596        0.7266295734        0.8306504125
 H         -0.4376935962       -1.1636668929       -0.8740809293
 H         -0.4379796792       -1.1631266045        0.8752070337
 H          0.5137391353        1.1671082032        0.8709061074
 H          0.5134284668        1.1671639562       -0.8705217543
 H          2.1524021567       -0.7619375795        0.8795225774
 H          2.7992465604        0.6185041072       -0.0001594735
 H          2.1521319049       -0.7617271696       -0.8799505663
          14
        -14.00297773
 N         -1.5185893627        0.5085638682       -0.1202443047
 C         -0.6426929993       -0.6169587638        0.3201573109
 C          0.7487262168       -0.6004273224       -0.3159105547
 C          1.6204671381        0.5654815843        0.1313518348
 H         -2.4586341347        0.4384357294        0.2971391861
 H         -1.6380670854        0.5101220079       -1.1433446355
 H         -1.1338997971        1.4237219736        0.1529789315
 H         -1.1508638663       -1.5627780370        0.0850296720
 H         -0.5519496430       -0.5961907814        1.4137792904
 H          0.6421643468       -0.5860277704       -1.4083310372
 H          1.2649181783       -1.5449478790       -0.0926359213
 H          1.7549028537        0.5691464204        1.2153219020
 H          1.1838272129        1.5261259687       -0.1473233437
 H          2.6168507252        0.5235764524       -0.3174982335
