26
 xtb: 6.5.1 (fef0646)
N            1.52536850516451       -1.26588267438546        1.22556239403021
C            0.84433570031306       -2.21895282242993        0.29304299420276
C            0.16747428477102       -1.49897557170191       -0.87483502645693
C           -0.85565648495894       -0.49098636962269       -0.43815535830991
C           -0.48635534343918        0.76027660111150       -0.18153440901765
C           -1.41132509105982        1.83951574221970        0.28869998729301
C           -2.89356798731331        1.47802396318104        0.09840725172389
C           -3.16110605179918        0.02579796928543        0.51497227597674
C           -2.28023069555313       -0.95283404990269       -0.27962405212654
Cl           3.15663715062420        0.97497626159730       -0.35789078911013
H            0.74714707583434       -0.77580503613119        1.77489573953717
H            2.08284552557438       -0.66536826102823        0.79496997532995
H            2.00774631504537       -1.84340993014442        1.98935638278136
H            0.05210015223826       -2.85972062616933        0.80755379277059
H            1.55183939821076       -2.96903684380460       -0.08024956392330
H           -0.29309122886427       -2.20417340625043       -1.57200013216375
H            0.95150621237716       -0.99072686976175       -1.44580091938259
H            0.55702393085062        1.01208479758506       -0.30908061074195
H           -1.17523058372371        2.77709966055761       -0.22706871845156
H           -1.21936047825579        2.03300871008180        1.35467624276744
H           -3.16496532753998        1.60736147665334       -0.95505885171615
H           -3.53780341539971        2.16590971924131        0.65825968138307
H           -4.22354925129837       -0.22409702673405        0.39177127424169
H           -2.95653426350488       -0.08915473681632        1.58673627795355
H           -2.70440391674993       -1.11089200633741       -1.27621792502299
H           -2.28080587798102       -1.94362178793750        0.19860920806677
