21
1.114
N           -0.98037  -1.01648  -0.28736
C           -0.07836   0.07567   0.18264
C            1.39124  -0.32566   0.13937
C            2.32734   0.78682   0.61411
C            3.80497   0.38288   0.62458
C            4.36710   0.11530  -0.76430
Cl          -4.32760   0.07381  -0.15626
H           -1.97587  -0.73228  -0.25873
H           -0.87658  -1.85637   0.29787
H           -0.75883  -1.28520  -1.25552
H           -0.35216   0.36897   1.20315
H           -0.23424   0.97330  -0.42765
H            1.65374  -0.62770  -0.88054
H            1.54465  -1.22301   0.75000
H            2.01879   1.10734   1.61751
H            2.19387   1.67083  -0.02097
H            3.93173  -0.50553   1.25684
H            4.39807   1.16732   1.11471
H            4.24481   0.98426  -1.41356
H            3.86199  -0.72205  -1.24827
H            5.43257  -0.12419  -0.73574
