 xtb: 6.5.1 (fef0646)
          01242317103D

 21 19  0     0  0            999 V2000
   -0.9804   -1.0165   -0.2874 N   0  0  0  0  0  0  0  0  0  0  0  0
   -0.0784    0.0757    0.1826 C   0  0  0  0  0  0  0  0  0  0  0  0
    1.3912   -0.3257    0.1394 C   0  0  0  0  0  0  0  0  0  0  0  0
    2.3273    0.7868    0.6141 C   0  0  0  0  0  0  0  0  0  0  0  0
    3.8050    0.3829    0.6246 C   0  0  0  0  0  0  0  0  0  0  0  0
    4.3671    0.1153   -0.7643 C   0  0  0  0  0  0  0  0  0  0  0  0
   -4.3276    0.0738   -0.1562 Cl  0  0  0  0  0  0  0  0  0  0  0  0
   -1.9759   -0.7323   -0.2587 H   0  0  0  0  0  0  0  0  0  0  0  0
   -0.8766   -1.8564    0.2979 H   0  0  0  0  0  0  0  0  0  0  0  0
   -0.7588   -1.2852   -1.2555 H   0  0  0  0  0  0  0  0  0  0  0  0
   -0.3522    0.3690    1.2032 H   0  0  0  0  0  0  0  0  0  0  0  0
   -0.2342    0.9733   -0.4277 H   0  0  0  0  0  0  0  0  0  0  0  0
    1.6537   -0.6277   -0.8805 H   0  0  0  0  0  0  0  0  0  0  0  0
    1.5446   -1.2230    0.7500 H   0  0  0  0  0  0  0  0  0  0  0  0
    2.0188    1.1073    1.6175 H   0  0  0  0  0  0  0  0  0  0  0  0
    2.1939    1.6708   -0.0210 H   0  0  0  0  0  0  0  0  0  0  0  0
    3.9317   -0.5055    1.2568 H   0  0  0  0  0  0  0  0  0  0  0  0
    4.3981    1.1673    1.1147 H   0  0  0  0  0  0  0  0  0  0  0  0
    4.2448    0.9842   -1.4136 H   0  0  0  0  0  0  0  0  0  0  0  0
    3.8620   -0.7221   -1.2483 H   0  0  0  0  0  0  0  0  0  0  0  0
    5.4326   -0.1242   -0.7358 H   0  0  0  0  0  0  0  0  0  0  0  0
  1  2  1  0  0  0  0
  2  3  1  0  0  0  0
  3  4  1  0  0  0  0
  4  5  1  0  0  0  0
  5  6  1  0  0  0  0
  1  8  1  0  0  0  0
  1  9  1  0  0  0  0
  1 10  1  0  0  0  0
  2 11  1  0  0  0  0
  2 12  1  0  0  0  0
  3 13  1  0  0  0  0
  3 14  1  0  0  0  0
  4 15  1  0  0  0  0
  4 16  1  0  0  0  0
  5 17  1  0  0  0  0
  5 18  1  0  0  0  0
  6 19  1  0  0  0  0
  6 20  1  0  0  0  0
  6 21  1  0  0  0  0
M  END
