13
0.0
N            0.81930  -1.45855  -0.00006
C            1.84609  -0.38044   0.00086
C            1.56784   0.89762   0.75524
C            1.57000   0.89672  -0.75570
Cl          -2.31290   0.13082  -0.00013
H            0.90433  -2.05172   0.83531
H            0.90575  -2.05172  -0.83530
H           -0.12800  -1.04543  -0.00075
H            2.87667  -0.75311   0.00252
H            2.39046   1.38181   1.28389
H            0.61575   0.97919   1.28043
H            2.39386   1.38079  -1.28257
H            0.61908   0.97866  -1.28296
