13
 xtb: 6.5.1 (fef0646)
N            0.94570218230764       -1.50311466152007       -0.00007356469056
C            1.92252357537164       -0.38187034428180        0.00088007635346
C            1.59869690158224        0.88633018598786        0.75531485721318
C            1.60097841280396        0.88547344004170       -0.75582364790170
Cl          -2.50040449575811        0.18099293347607       -0.00010445990099
H            0.94538591075441       -2.06287360885245        0.83538682823350
H            0.94684556301572       -2.06288523212258       -0.83536016777404
H           -0.09726562314342       -1.06822989503372       -0.00078464360782
H            2.90262402078781       -0.74294477368832        0.00253867375006
H            2.39460927738132        1.38663543602062        1.28392471386876
H            0.62390109953127        0.96743073936857        1.28043192291629
H            2.39805835261006        1.38562989976599       -1.28261138362051
H            0.62727596282950        0.96691513834178       -1.28301580640174
