13
 xtb: 6.5.1 (fef0646)
N            0.67922869934986       -1.39528654561106       -0.00006537373518
C            1.77546589532621       -0.38115926053948        0.00085092540247
C            1.55709777435735        0.90969488403328        0.75527949959488
C            1.55922226908395        0.90870196965488       -0.75574806892557
Cl          -2.14519797795430        0.06654600680198       -0.00012287307714
H            0.85759139429452       -2.03612866625644        0.83492606059779
H            0.85885831923501       -2.03602302489789       -0.83502513973769
H           -0.16498453358671       -1.01322108053099       -0.00062648229039
H            2.85120105332864       -0.76731309006583        0.00251124506652
H            2.39327367342104        1.37554370622925        1.28359688607762
H            0.61380726790762        0.99320818024540        1.28079067451942
H            2.39665853274552        1.37447571100236       -1.28229151593648
H            0.61712676460188        0.99263766382291       -1.28333113607197
