 xtb: 6.5.1 (fef0646)
          02032317503D

 13 12  0     0  0            999 V2000
    0.8193   -1.4586   -0.0001 N   0  0  0  0  0  0  0  0  0  0  0  0
    1.8461   -0.3804    0.0009 C   0  0  0  0  0  0  0  0  0  0  0  0
    1.5678    0.8976    0.7552 C   0  0  0  0  0  0  0  0  0  0  0  0
    1.5700    0.8967   -0.7557 C   0  0  0  0  0  0  0  0  0  0  0  0
   -2.3129    0.1308   -0.0001 Cl  0  0  0  0  0  0  0  0  0  0  0  0
    0.9043   -2.0517    0.8353 H   0  0  0  0  0  0  0  0  0  0  0  0
    0.9057   -2.0517   -0.8353 H   0  0  0  0  0  0  0  0  0  0  0  0
   -0.1280   -1.0454   -0.0007 H   0  0  0  0  0  0  0  0  0  0  0  0
    2.8767   -0.7531    0.0025 H   0  0  0  0  0  0  0  0  0  0  0  0
    2.3905    1.3818    1.2839 H   0  0  0  0  0  0  0  0  0  0  0  0
    0.6158    0.9792    1.2804 H   0  0  0  0  0  0  0  0  0  0  0  0
    2.3939    1.3808   -1.2826 H   0  0  0  0  0  0  0  0  0  0  0  0
    0.6191    0.9787   -1.2830 H   0  0  0  0  0  0  0  0  0  0  0  0
  1  2  1  0  0  0  0
  2  3  1  0  0  0  0
  2  4  1  0  0  0  0
  3  4  1  0  0  0  0
  1  6  1  0  0  0  0
  1  7  1  0  0  0  0
  1  8  1  0  0  0  0
  2  9  1  0  0  0  0
  3 10  1  0  0  0  0
  3 11  1  0  0  0  0
  4 12  1  0  0  0  0
  4 13  1  0  0  0  0
M  END
