 xtb: 6.5.1 (fef0646)
          01232319183D

 47 50  0     0  0            999 V2000
    4.8078    1.8499    4.0307 N   0  0  0  0  0  0  0  0  0  0  0  0
    4.4588    0.4356    3.7187 C   0  0  0  0  0  0  0  0  0  0  0  0
    3.9540    0.3895    2.2692 C   0  0  0  0  0  0  0  0  0  0  0  0
    4.9685    1.0403    1.3881 C   0  0  0  0  0  0  0  0  0  0  0  0
    5.1135    2.3898    1.1574 C   0  0  0  0  0  0  0  0  0  0  0  0
    6.2639    2.6992    0.4110 C   0  0  0  0  0  0  0  0  0  0  0  0
    7.0183    1.5951    0.0959 C   0  0  0  0  0  0  0  0  0  0  0  0
    8.2288    1.5557   -0.6478 C   0  0  0  0  0  0  0  0  0  0  0  0
    8.9508    0.4637   -1.0712 C   0  0  0  0  0  0  0  0  0  0  0  0
   10.0996    0.7869   -1.8034 C   0  0  0  0  0  0  0  0  0  0  0  0
   11.0159   -0.2475   -2.3603 C   0  0  0  0  0  0  0  0  0  0  0  0
   10.2701    2.1607   -1.9328 C   0  0  0  0  0  0  0  0  0  0  0  0
   11.3019    2.8795   -2.5984 C   0  0  0  0  0  0  0  0  0  0  0  0
   11.5375    4.2469   -2.5676 C   0  0  0  0  0  0  0  0  0  0  0  0
   10.8035    5.1765   -1.8115 C   0  0  0  0  0  0  0  0  0  0  0  0
   10.2255    5.9484   -1.1895 N   0  0  0  0  0  0  0  0  0  0  0  0
   12.6427    4.6503   -3.3654 C   0  0  0  0  0  0  0  0  0  0  0  0
   13.0142    6.0048   -3.4323 C   0  0  0  0  0  0  0  0  0  0  0  0
   13.2664    7.1233   -3.4416 N   0  0  0  0  0  0  0  0  0  0  0  0
   13.2642    3.5956   -4.0222 C   0  0  0  0  0  0  0  0  0  0  0  0
   14.3821    3.6450   -4.8976 C   0  0  0  0  0  0  0  0  0  0  0  0
   15.0097    2.6034   -5.5677 C   0  0  0  0  0  0  0  0  0  0  0  0
   14.6205    1.1676   -5.4978 C   0  0  0  0  0  0  0  0  0  0  0  0
   16.0883    3.0599   -6.3491 C   0  0  0  0  0  0  0  0  0  0  0  0
   16.2779    4.4056   -6.2786 C   0  0  0  0  0  0  0  0  0  0  0  0
   15.1489    5.1764   -5.2545 S   0  0  0  0  0  0  0  0  0  0  0  0
   12.4700    2.0975   -3.6284 S   0  0  0  0  0  0  0  0  0  0  0  0
    8.9861    3.0379   -1.1488 S   0  0  0  0  0  0  0  0  0  0  0  0
    6.2967    0.1410    0.7263 S   0  0  0  0  0  0  0  0  0  0  0  0
    5.4860    1.9348    4.7928 H   0  0  0  0  0  0  0  0  0  0  0  0
    3.9713    2.3943    4.2667 H   0  0  0  0  0  0  0  0  0  0  0  0
    5.2072    2.2305    3.1173 H   0  0  0  0  0  0  0  0  0  0  0  0
    3.7095    0.0668    4.4175 H   0  0  0  0  0  0  0  0  0  0  0  0
    5.3613   -0.1705    3.8065 H   0  0  0  0  0  0  0  0  0  0  0  0
    2.9963    0.9070    2.1874 H   0  0  0  0  0  0  0  0  0  0  0  0
    3.8035   -0.6491    1.9796 H   0  0  0  0  0  0  0  0  0  0  0  0
    4.3630    3.1277    1.3929 H   0  0  0  0  0  0  0  0  0  0  0  0
    6.5330    3.6912    0.0986 H   0  0  0  0  0  0  0  0  0  0  0  0
    8.6521   -0.5494   -0.8624 H   0  0  0  0  0  0  0  0  0  0  0  0
   10.7114   -1.2338   -2.0206 H   0  0  0  0  0  0  0  0  0  0  0  0
   12.0432   -0.0705   -2.0442 H   0  0  0  0  0  0  0  0  0  0  0  0
   10.9943   -0.2355   -3.4500 H   0  0  0  0  0  0  0  0  0  0  0  0
   13.5953    1.0241   -5.8408 H   0  0  0  0  0  0  0  0  0  0  0  0
   14.6884    0.7934   -4.4757 H   0  0  0  0  0  0  0  0  0  0  0  0
   15.2804    0.5760   -6.1263 H   0  0  0  0  0  0  0  0  0  0  0  0
   16.7008    2.4061   -6.9432 H   0  0  0  0  0  0  0  0  0  0  0  0
   17.0237    4.9947   -6.7743 H   0  0  0  0  0  0  0  0  0  0  0  0
  1  2  1  0  0  0  0
  2  3  1  0  0  0  0
  3  4  1  0  0  0  0
  4  5  4  0  0  0  0
  5  6  4  0  0  0  0
  6  7  4  0  0  0  0
  7  8  1  0  0  0  0
  8  9  4  0  0  0  0
  9 10  4  0  0  0  0
 10 11  1  0  0  0  0
 10 12  4  0  0  0  0
 12 13  1  0  0  0  0
 13 14  4  0  0  0  0
 14 15  1  0  0  0  0
 15 16  3  0  0  0  0
 14 17  4  0  0  0  0
 17 18  1  0  0  0  0
 18 19  3  0  0  0  0
 17 20  4  0  0  0  0
 20 21  4  0  0  0  0
 21 22  4  0  0  0  0
 22 23  1  0  0  0  0
 22 24  4  0  0  0  0
 24 25  2  0  0  0  0
 21 26  1  0  0  0  0
 25 26  1  0  0  0  0
 13 27  1  0  0  0  0
 20 27  1  0  0  0  0
  8 28  1  0  0  0  0
 12 28  1  0  0  0  0
  4 29  1  0  0  0  0
  7 29  1  0  0  0  0
  1 30  1  0  0  0  0
  1 31  1  0  0  0  0
  1 32  1  0  0  0  0
  2 33  1  0  0  0  0
  2 34  1  0  0  0  0
  3 35  1  0  0  0  0
  3 36  1  0  0  0  0
  5 37  1  0  0  0  0
  6 38  1  0  0  0  0
  9 39  1  0  0  0  0
 11 40  1  0  0  0  0
 11 41  1  0  0  0  0
 11 42  1  0  0  0  0
 23 43  1  0  0  0  0
 23 44  1  0  0  0  0
 23 45  1  0  0  0  0
 24 46  1  0  0  0  0
 25 47  1  0  0  0  0
M  CHG  1   1   1
M  END
