40
 xtb: 6.5.1 (fef0646)
N           -7.58534526344427       -1.09667509615880       -2.35600391682200
C           -8.00106798787724       -1.70475224757606       -1.05791150069606
C           -7.64105365233187       -0.83305429578363        0.14672040600175
C           -6.17774804686265       -0.74740162505511        0.42531079285563
C           -5.61632183562298       -0.63672905944253        1.65868805281958
C           -4.19844478024451       -0.53953749439929        1.64602092898739
C           -3.64971498789523       -0.57206628200157        0.39483911378351
C           -2.24633831553633       -0.48958095685088        0.08719014094123
C           -1.70229570837549       -0.56287212541113       -1.16721588512784
C           -0.29572891718446       -0.45287259965966       -1.18970413153072
C            0.26970976118650       -0.29035506299610        0.04763024421075
C            1.67363035553278       -0.13880265045001        0.31003911004813
C            2.24099641333018        0.02094131430522        1.54664551307559
C            3.64531371315602        0.15687973729158        1.51978517062972
C            4.18604328753220        0.10482373107684        0.26295935438724
C            5.58567197235335        0.22237327996421       -0.05192833844588
C            6.12386664372892        0.18560806444637       -1.30773206276293
C            7.53589632934865        0.33045062166455       -1.32943221247288
C            8.07935283465357        0.47714240779071       -0.09931071934996
S            6.86003766790776        0.44775803635182        1.12208189692419
S            2.91903444622161       -0.13776108118169       -0.91371890356875
S           -0.97917477387936       -0.27145056488344        1.26835029793468
S           -4.92679637050050       -0.72542128346509       -0.78288606397509
Cl           0.65055225162348        3.18959277275529       -0.10171117978344
H           -6.57601315478831       -0.92067396036960       -2.33383496021080
H           -8.06871739849037       -0.22303637465320       -2.51313201479104
H           -7.77952190041649       -1.73633334796745       -3.15036964088086
H           -7.51111132166654       -2.69689762830026       -0.93283210842273
H           -9.07066849031063       -1.92147977439073       -1.07266520029249
H           -8.14461227366787       -1.20869853114189        1.04757101897406
H           -8.03490107897081        0.17191669955483       -0.01540255029389
H           -6.20134462154568       -0.59025022329734        2.56516547413225
H           -3.60305155834036       -0.41467620427309        2.53758450223091
H           -2.30652575247571       -0.64545918565376       -2.05734995367916
H            0.28493789459774       -0.44286766092308       -2.09912839919877
H            1.66065451882303        0.01427957526440        2.45567842884837
H            4.24862738265680        0.26081034794536        2.40787754281059
H            5.52431584041569        0.06995887624435       -2.19437758303720
H            8.11624184031299        0.33263917976970       -2.23816573062457
H            9.12590211183843        0.59600984425310        0.11173590884759
