 xtb: 6.5.1 (fef0646)
          01232314293D

 22 21  0     0  0            999 V2000
    1.0124   -0.6151   -0.1611 N   0  0  0  0  0  0  0  0  0  0  0  0
    2.4440   -0.3195   -0.0323 C   0  0  0  0  0  0  0  0  0  0  0  0
    3.2689   -1.5558    0.3428 C   0  0  0  0  0  0  0  0  0  0  0  0
    2.9349    0.2986   -1.3215 C   0  0  0  0  0  0  0  0  0  0  0  0
    3.4337    1.5936   -1.3309 C   0  0  0  0  0  0  0  0  0  0  0  0
    3.8759    2.1701   -2.5082 C   0  0  0  0  0  0  0  0  0  0  0  0
    3.8213    1.4576   -3.6933 C   0  0  0  0  0  0  0  0  0  0  0  0
    3.3247    0.1656   -3.6940 C   0  0  0  0  0  0  0  0  0  0  0  0
    2.8854   -0.4096   -2.5156 C   0  0  0  0  0  0  0  0  0  0  0  0
   -0.3669    1.8454   -0.9526 Cl  0  0  0  0  0  0  0  0  0  0  0  0
    0.6350   -0.9797    0.7071 H   0  0  0  0  0  0  0  0  0  0  0  0
    0.8500   -1.2920   -0.8994 H   0  0  0  0  0  0  0  0  0  0  0  0
    0.2718    0.6972   -0.5693 H   0  0  0  0  0  0  0  0  0  0  0  0
    2.5354    0.4219    0.7691 H   0  0  0  0  0  0  0  0  0  0  0  0
    3.1877   -2.3223   -0.4253 H   0  0  0  0  0  0  0  0  0  0  0  0
    2.9226   -1.9712    1.2879 H   0  0  0  0  0  0  0  0  0  0  0  0
    4.3166   -1.2860    0.4469 H   0  0  0  0  0  0  0  0  0  0  0  0
    3.4679    2.1579   -0.4107 H   0  0  0  0  0  0  0  0  0  0  0  0
    4.2564    3.1807   -2.5013 H   0  0  0  0  0  0  0  0  0  0  0  0
    4.1611    1.9078   -4.6142 H   0  0  0  0  0  0  0  0  0  0  0  0
    3.2778   -0.3960   -4.6154 H   0  0  0  0  0  0  0  0  0  0  0  0
    2.5019   -1.4201   -2.5358 H   0  0  0  0  0  0  0  0  0  0  0  0
  1  2  1  0  0  0  0
  2  3  1  0  0  0  0
  2  4  1  0  0  0  0
  4  5  4  0  0  0  0
  5  6  4  0  0  0  0
  6  7  4  0  0  0  0
  7  8  4  0  0  0  0
  4  9  4  0  0  0  0
  8  9  4  0  0  0  0
  1 11  1  0  0  0  0
  1 12  1  0  0  0  0
 10 13  1  0  0  0  0
  2 14  1  0  0  0  0
  3 15  1  0  0  0  0
  3 16  1  0  0  0  0
  3 17  1  0  0  0  0
  5 18  1  0  0  0  0
  6 19  1  0  0  0  0
  7 20  1  0  0  0  0
  8 21  1  0  0  0  0
  9 22  1  0  0  0  0
M  END
