 xtb: 6.5.1 (fef0646)
          01242310043D

 25 24  0     0  0            999 V2000
   -1.3366    1.9083    0.1211 N   0  0  0  0  0  0  0  0  0  0  0  0
   -0.5323    1.6352    1.3417 C   0  0  0  0  0  0  0  0  0  0  0  0
    0.6436    0.6754    1.1007 C   0  0  0  0  0  0  0  0  0  0  0  0
    1.6541    1.2191    0.0638 C   0  0  0  0  0  0  0  0  0  0  0  0
    2.8596    0.2741   -0.0828 C   0  0  0  0  0  0  0  0  0  0  0  0
    2.4051   -1.1448   -0.4694 C   0  0  0  0  0  0  0  0  0  0  0  0
    1.3783   -1.6941    0.5373 C   0  0  0  0  0  0  0  0  0  0  0  0
    0.1808   -0.7384    0.6787 C   0  0  0  0  0  0  0  0  0  0  0  0
   -2.7388   -0.9868   -1.2826 Cl  0  0  0  0  0  0  0  0  0  0  0  0
   -0.7634    2.3440   -0.6180 H   0  0  0  0  0  0  0  0  0  0  0  0
   -2.1264    2.5499    0.3147 H   0  0  0  0  0  0  0  0  0  0  0  0
   -1.7377    1.0391   -0.2730 H   0  0  0  0  0  0  0  0  0  0  0  0
   -1.1853    1.2234    2.1204 H   0  0  0  0  0  0  0  0  0  0  0  0
   -0.1536    2.5832    1.7421 H   0  0  0  0  0  0  0  0  0  0  0  0
    1.1926    0.5597    2.0510 H   0  0  0  0  0  0  0  0  0  0  0  0
    1.9702    2.2352    0.3340 H   0  0  0  0  0  0  0  0  0  0  0  0
    1.1521    1.3146   -0.9053 H   0  0  0  0  0  0  0  0  0  0  0  0
    3.4073    0.2340    0.8674 H   0  0  0  0  0  0  0  0  0  0  0  0
    3.5768    0.6684   -0.8164 H   0  0  0  0  0  0  0  0  0  0  0  0
    3.2677   -1.8206   -0.5539 H   0  0  0  0  0  0  0  0  0  0  0  0
    1.9547   -1.1213   -1.4701 H   0  0  0  0  0  0  0  0  0  0  0  0
    1.8597   -1.8206    1.5153 H   0  0  0  0  0  0  0  0  0  0  0  0
    1.0425   -2.6990    0.2450 H   0  0  0  0  0  0  0  0  0  0  0  0
   -0.5623   -1.1264    1.3879 H   0  0  0  0  0  0  0  0  0  0  0  0
   -0.3379   -0.6686   -0.2832 H   0  0  0  0  0  0  0  0  0  0  0  0
  1  2  1  0  0  0  0
  2  3  1  0  0  0  0
  3  4  1  0  0  0  0
  4  5  1  0  0  0  0
  5  6  1  0  0  0  0
  6  7  1  0  0  0  0
  3  8  1  0  0  0  0
  7  8  1  0  0  0  0
  1 10  1  0  0  0  0
  1 11  1  0  0  0  0
  1 12  1  0  0  0  0
  2 13  1  0  0  0  0
  2 14  1  0  0  0  0
  3 15  1  0  0  0  0
  4 16  1  0  0  0  0
  4 17  1  0  0  0  0
  5 18  1  0  0  0  0
  5 19  1  0  0  0  0
  6 20  1  0  0  0  0
  6 21  1  0  0  0  0
  7 22  1  0  0  0  0
  7 23  1  0  0  0  0
  8 24  1  0  0  0  0
  8 25  1  0  0  0  0
M  END
