  18

 N          1.8347956929        0.0077131587        0.5656820528
 C          0.7997733043        0.0123673663       -0.5180650177
 C         -0.1191180256       -1.2262740975       -0.4388735351
 C         -1.3819012166       -0.7911341498        0.3394812364
 C         -1.4023340157        0.7609330198        0.3440250052
 C         -0.1377441178        1.2350548943       -0.4105388398
 H          2.4468965147       -0.8171521460        0.4966809082
 H          1.3943664872       -0.0052505927        1.4952725662
 H          2.4354370771        0.8422211195        0.5145300366
 H          1.3292681740        0.0274609239       -1.4866383092
 H          0.3934367893       -2.0593146686        0.0527360584
 H         -0.3844045751       -1.5722259090       -1.4439300839
 H         -1.3571841630       -1.1797626227        1.3641274824
 H         -2.2902377726       -1.2027428534       -0.1155285940
 H         -1.4082372000        1.1446730611        1.3708116029
 H         -2.3127491384        1.1502084543       -0.1263785496
 H          0.3591310461        2.0602412416        0.1095355202
 H         -0.3989295419        1.6070560037       -1.4073673326
          18
        -19.32390612
 N          1.8430541257        0.0000146664        0.5622707874
 C          0.8120053671        0.0026727349       -0.5252373085
 C         -0.1157916946       -1.2286003993       -0.4378533294
 C         -1.3738142178       -0.7788994834        0.3399958956
 C         -1.3822845984        0.7731037845        0.3342382298
 C         -0.1181317820        1.2317945170       -0.4301150676
 H          2.4494583898       -0.8298044706        0.5026330822
 H          1.3980166389       -0.0028231768        1.4898810856
 H          2.4487569652        0.8306582296        0.5072882119
 H          1.3436810860        0.0061895764       -1.4924852981
 H          0.3914518846       -2.0627917172        0.0574951687
 H         -0.3859270648       -1.5779409364       -1.4405626766
 H         -1.3495458070       -1.1611237469        1.3672945434
 H         -2.2865103420       -1.1865468391       -0.1102260854
 H         -1.3784055194        1.1633974536        1.3587203503
 H         -2.2926118511        1.1667691139       -0.1329138492
 H          0.3852860668        2.0607254723        0.0777306783
 H         -0.3812999432        1.5922392950       -1.4308028147
