  18

 N          1.6556204961        0.0603570212        0.7061467611
 C          0.8439023999        0.0927104906       -0.5643541555
 C         -0.0156957543       -1.1615212460       -0.6211000605
 C         -1.1563893715       -0.8855766084        0.3687896364
 C         -1.2894960560        0.6497031864        0.4399779251
 C         -0.1778617517        1.2155498824       -0.4590607634
 H          2.2985882321       -0.7402945611        0.7153768881
 H          0.9922047697       -0.0350067148        1.4869990174
 H          2.1921662066        0.9272952232        0.8277546907
 H          1.5332006965        0.1977399897       -1.4026174541
 H          0.5359494463       -2.0713806998       -0.3896945034
 H         -0.4100015215       -1.2648818241       -1.6305281432
 H         -0.9365150629       -1.3093820369        1.3500779819
 H         -2.0794803981       -1.3488044454        0.0312775989
 H         -1.1896818867        1.0075976829        1.4654057461
 H         -2.2650695668        0.9769806644        0.0902465051
 H          0.2449871509        2.1425403231       -0.0751688854
 H         -0.5667880288        1.4229036726       -1.4542787853
