45

N          2.92645        0.47149        3.24014
C          2.48014        1.53042        2.29471
C          3.61260        2.50915        1.98126
C          4.77172        1.84435        1.29810
C          4.96734        1.63966       -0.05050
C          6.21425        1.00189       -0.32222
C          6.95376        0.75221        0.82084
C          8.27639        0.17693        0.91473
C          9.21274        0.36966        1.91073
C         10.45996       -0.30538        1.67523
C         11.62634       -0.16733        2.60459
C         10.41926       -1.03931        0.49510
C         11.43934       -1.87104       -0.11447
C         11.65874       -2.07183       -1.46515
C         12.69863       -3.01014       -1.72183
C         13.31359       -3.46353       -0.57079
C         14.44341       -4.36768       -0.47850
C         15.53348       -4.48016       -1.34120
C         15.83264       -3.63916       -2.54280
C         16.40612       -5.55242       -0.94371
C         15.99045       -6.18511        0.20417
S         14.55059       -5.51283        0.80748
S         12.54008       -2.80453        0.80878
S          8.89292       -0.86885       -0.28531
S          6.08709        1.25104        2.21674
H          2.17213       -0.19443        3.44896
H          3.25700        0.86308        4.13189
H          3.71136       -0.06906        2.84124
H          1.64369        2.04522        2.77669
H          2.12041        1.01699        1.39764
H          3.94352        3.00651        2.90180
H          3.22422        3.30025        1.32798
H          4.27343        1.95263       -0.82396
H          6.56616        0.77676       -1.32302
H          9.04328        1.00447        2.77237
H         11.41227        0.55613        3.39801
H         12.51008        0.18692        2.06467
H         11.85340       -1.11961        3.09161
H         11.09285       -1.58073       -2.24836
H         12.98768       -3.32088       -2.71865
H         15.19235       -2.76158       -2.62864
H         15.72279       -4.23823       -3.45416
H         16.86406       -3.27156       -2.49638
H         17.30473       -5.83351       -1.47669
H         16.46834       -7.00846        0.71518
