 xtb: 6.5.1 (fef0646)
          01232314003D

 45 48  0     0  0            999 V2000
    3.4254    0.9118    3.3987 N   0  0  0  0  0  0  0  0  0  0  0  0
    2.6911    1.6162    2.3112 C   0  0  0  0  0  0  0  0  0  0  0  0
    3.6158    2.6670    1.6872 C   0  0  0  0  0  0  0  0  0  0  0  0
    4.8155    2.0242    1.0753 C   0  0  0  0  0  0  0  0  0  0  0  0
    5.0609    1.7253   -0.2277 C   0  0  0  0  0  0  0  0  0  0  0  0
    6.2662    1.0303   -0.4348 C   0  0  0  0  0  0  0  0  0  0  0  0
    6.9670    0.7669    0.7141 C   0  0  0  0  0  0  0  0  0  0  0  0
    8.1959    0.0870    0.8865 C   0  0  0  0  0  0  0  0  0  0  0  0
    8.8896   -0.1593    2.0514 C   0  0  0  0  0  0  0  0  0  0  0  0
   10.0821   -0.8671    1.8749 C   0  0  0  0  0  0  0  0  0  0  0  0
   10.9843   -1.2368    3.0015 C   0  0  0  0  0  0  0  0  0  0  0  0
   10.3178   -1.1770    0.5412 C   0  0  0  0  0  0  0  0  0  0  0  0
   11.3950   -1.8786   -0.0575 C   0  0  0  0  0  0  0  0  0  0  0  0
   11.5707   -2.1208   -1.4061 C   0  0  0  0  0  0  0  0  0  0  0  0
   12.7187   -2.8505   -1.7038 C   0  0  0  0  0  0  0  0  0  0  0  0
   13.4579   -3.1917   -0.5888 C   0  0  0  0  0  0  0  0  0  0  0  0
   14.6663   -3.9431   -0.4861 C   0  0  0  0  0  0  0  0  0  0  0  0
   15.5735   -4.3093   -1.4625 C   0  0  0  0  0  0  0  0  0  0  0  0
   15.4975   -3.9506   -2.9083 C   0  0  0  0  0  0  0  0  0  0  0  0
   16.6396   -5.0675   -0.9303 C   0  0  0  0  0  0  0  0  0  0  0  0
   16.5509   -5.2713    0.4098 C   0  0  0  0  0  0  0  0  0  0  0  0
   15.1581   -4.5381    1.0817 S   0  0  0  0  0  0  0  0  0  0  0  0
   12.7044   -2.5819    0.8534 S   0  0  0  0  0  0  0  0  0  0  0  0
    9.0427   -0.5768   -0.4846 S   0  0  0  0  0  0  0  0  0  0  0  0
    6.1297    1.4394    2.0980 S   0  0  0  0  0  0  0  0  0  0  0  0
    2.9573    0.0500    3.6930 H   0  0  0  0  0  0  0  0  0  0  0  0
    3.5413    1.5274    4.2111 H   0  0  0  0  0  0  0  0  0  0  0  0
    4.3963    0.7031    3.0289 H   0  0  0  0  0  0  0  0  0  0  0  0
    1.7902    2.0774    2.7161 H   0  0  0  0  0  0  0  0  0  0  0  0
    2.4085    0.8820    1.5556 H   0  0  0  0  0  0  0  0  0  0  0  0
    3.9129    3.3934    2.4464 H   0  0  0  0  0  0  0  0  0  0  0  0
    3.0636    3.1987    0.9125 H   0  0  0  0  0  0  0  0  0  0  0  0
    4.3976    2.0003   -1.0280 H   0  0  0  0  0  0  0  0  0  0  0  0
    6.6253    0.7250   -1.4002 H   0  0  0  0  0  0  0  0  0  0  0  0
    8.5400    0.1745    3.0147 H   0  0  0  0  0  0  0  0  0  0  0  0
   10.5885   -0.8539    3.9384 H   0  0  0  0  0  0  0  0  0  0  0  0
   11.9813   -0.8259    2.8481 H   0  0  0  0  0  0  0  0  0  0  0  0
   11.0831   -2.3191    3.0778 H   0  0  0  0  0  0  0  0  0  0  0  0
   10.8743   -1.7755   -2.1507 H   0  0  0  0  0  0  0  0  0  0  0  0
   12.9815   -3.1395   -2.7024 H   0  0  0  0  0  0  0  0  0  0  0  0
   15.2635   -2.8950   -3.0352 H   0  0  0  0  0  0  0  0  0  0  0  0
   14.7300   -4.5388   -3.4118 H   0  0  0  0  0  0  0  0  0  0  0  0
   16.4503   -4.1576   -3.3886 H   0  0  0  0  0  0  0  0  0  0  0  0
   17.4459   -5.4461   -1.5327 H   0  0  0  0  0  0  0  0  0  0  0  0
   17.2235   -5.8096    1.0472 H   0  0  0  0  0  0  0  0  0  0  0  0
  1  2  1  0  0  0  0
  2  3  1  0  0  0  0
  3  4  1  0  0  0  0
  4  5  2  0  0  0  0
  5  6  4  0  0  0  0
  6  7  2  0  0  0  0
  7  8  1  0  0  0  0
  8  9  4  0  0  0  0
  9 10  4  0  0  0  0
 10 11  1  0  0  0  0
 10 12  4  0  0  0  0
 12 13  4  0  0  0  0
 13 14  4  0  0  0  0
 14 15  4  0  0  0  0
 15 16  4  0  0  0  0
 16 17  1  0  0  0  0
 17 18  4  0  0  0  0
 18 19  1  0  0  0  0
 18 20  4  0  0  0  0
 20 21  2  0  0  0  0
 17 22  1  0  0  0  0
 21 22  1  0  0  0  0
 13 23  1  0  0  0  0
 16 23  1  0  0  0  0
  8 24  1  0  0  0  0
 12 24  1  0  0  0  0
  4 25  1  0  0  0  0
  7 25  1  0  0  0  0
  1 26  1  0  0  0  0
  1 27  1  0  0  0  0
  1 28  1  0  0  0  0
  2 29  1  0  0  0  0
  2 30  1  0  0  0  0
  3 31  1  0  0  0  0
  3 32  1  0  0  0  0
  5 33  1  0  0  0  0
  6 34  1  0  0  0  0
  9 35  1  0  0  0  0
 11 36  1  0  0  0  0
 11 37  1  0  0  0  0
 11 38  1  0  0  0  0
 14 39  1  0  0  0  0
 15 40  1  0  0  0  0
 19 41  1  0  0  0  0
 19 42  1  0  0  0  0
 19 43  1  0  0  0  0
 20 44  1  0  0  0  0
 21 45  1  0  0  0  0
M  CHG  1   1   1
M  END
