 xtb: 6.5.1 (fef0646)
          01242310043D

 19 18  0     0  0            999 V2000
   -1.1597   -0.2614    0.6520 N   0  0  0  0  0  0  0  0  0  0  0  0
   -0.3415   -0.2549   -0.5929 C   0  0  0  0  0  0  0  0  0  0  0  0
    1.0314    0.2868   -0.3523 C   0  0  0  0  0  0  0  0  0  0  0  0
    2.0767   -0.5603   -0.0110 C   0  0  0  0  0  0  0  0  0  0  0  0
    3.3349   -0.0553    0.2481 C   0  0  0  0  0  0  0  0  0  0  0  0
    3.5625    1.3055    0.1765 C   0  0  0  0  0  0  0  0  0  0  0  0
    2.5286    2.1596   -0.1513 C   0  0  0  0  0  0  0  0  0  0  0  0
    1.2702    1.6540   -0.4109 C   0  0  0  0  0  0  0  0  0  0  0  0
   -4.3459   -1.5239    0.0953 Cl  0  0  0  0  0  0  0  0  0  0  0  0
   -0.7102   -0.8351    1.3819 H   0  0  0  0  0  0  0  0  0  0  0  0
   -2.1145   -0.6386    0.4934 H   0  0  0  0  0  0  0  0  0  0  0  0
   -1.2559    0.6925    1.0320 H   0  0  0  0  0  0  0  0  0  0  0  0
   -0.8405    0.3398   -1.3661 H   0  0  0  0  0  0  0  0  0  0  0  0
   -0.2709   -1.2706   -1.0001 H   0  0  0  0  0  0  0  0  0  0  0  0
    1.8947   -1.6213    0.0531 H   0  0  0  0  0  0  0  0  0  0  0  0
    4.1409   -0.7238    0.5089 H   0  0  0  0  0  0  0  0  0  0  0  0
    4.5455    1.7000    0.3796 H   0  0  0  0  0  0  0  0  0  0  0  0
    2.7034    3.2239   -0.2029 H   0  0  0  0  0  0  0  0  0  0  0  0
    0.4591    2.3191   -0.6595 H   0  0  0  0  0  0  0  0  0  0  0  0
  1  2  1  0  0  0  0
  2  3  1  0  0  0  0
  3  4  4  0  0  0  0
  4  5  4  0  0  0  0
  5  6  4  0  0  0  0
  6  7  4  0  0  0  0
  3  8  4  0  0  0  0
  7  8  4  0  0  0  0
  1 10  1  0  0  0  0
  1 11  1  0  0  0  0
  1 12  1  0  0  0  0
  2 13  1  0  0  0  0
  2 14  1  0  0  0  0
  4 15  1  0  0  0  0
  5 16  1  0  0  0  0
  6 17  1  0  0  0  0
  7 18  1  0  0  0  0
  8 19  1  0  0  0  0
M  END
