 xtb: 6.5.1 (fef0646)
          01242316583D

 27 27  0     0  0            999 V2000
   -3.7255    0.7671   -0.0122 N   0  0  0  0  0  0  0  0  0  0  0  0
   -2.6610   -0.2442    0.2702 C   0  0  0  0  0  0  0  0  0  0  0  0
   -1.4483   -0.1462   -0.6704 C   0  0  0  0  0  0  0  0  0  0  0  0
   -0.5176   -1.3842   -0.5546 C   0  0  0  0  0  0  0  0  0  0  0  0
    0.2907   -1.3997    0.7544 C   0  0  0  0  0  0  0  0  0  0  0  0
    1.0931   -0.0913    0.9574 C   0  0  0  0  0  0  0  0  0  0  0  0
    2.2432    0.0239   -0.0181 C   0  0  0  0  0  0  0  0  0  0  0  0
    2.2832   -0.8405   -1.0493 O   0  0  0  0  0  0  0  0  0  0  0  0
    3.0659    0.8921    0.1537 O   0  0  0  0  0  0  0  0  0  0  0  0
    0.1746    1.1466    0.8481 C   0  0  0  0  0  0  0  0  0  0  0  0
   -0.6228    1.1515   -0.4677 C   0  0  0  0  0  0  0  0  0  0  0  0
   -4.0480    0.6961   -0.9834 H   0  0  0  0  0  0  0  0  0  0  0  0
   -3.3850    1.7229    0.1388 H   0  0  0  0  0  0  0  0  0  0  0  0
   -4.5375    0.6292    0.5997 H   0  0  0  0  0  0  0  0  0  0  0  0
   -3.1004   -1.2448    0.1906 H   0  0  0  0  0  0  0  0  0  0  0  0
   -2.3334   -0.1482    1.3092 H   0  0  0  0  0  0  0  0  0  0  0  0
   -1.8498   -0.1273   -1.6974 H   0  0  0  0  0  0  0  0  0  0  0  0
    0.1806   -1.3986   -1.4005 H   0  0  0  0  0  0  0  0  0  0  0  0
   -1.1093   -2.3032   -0.6458 H   0  0  0  0  0  0  0  0  0  0  0  0
    0.9899   -2.2459    0.7475 H   0  0  0  0  0  0  0  0  0  0  0  0
   -0.3768   -1.5686    1.6067 H   0  0  0  0  0  0  0  0  0  0  0  0
    1.5428   -0.1059    1.9633 H   0  0  0  0  0  0  0  0  0  0  0  0
    3.0645   -0.6752   -1.5846 H   0  0  0  0  0  0  0  0  0  0  0  0
    0.7922    2.0518    0.9160 H   0  0  0  0  0  0  0  0  0  0  0  0
   -0.5074    1.1871    1.7044 H   0  0  0  0  0  0  0  0  0  0  0  0
    0.0751    1.2704   -1.3049 H   0  0  0  0  0  0  0  0  0  0  0  0
   -1.2787    2.0278   -0.5114 H   0  0  0  0  0  0  0  0  0  0  0  0
  1  2  1  0  0  0  0
  2  3  1  0  0  0  0
  3  4  1  0  0  0  0
  4  5  1  0  0  0  0
  5  6  1  0  0  0  0
  6  7  1  0  0  0  0
  7  8  1  0  0  0  0
  7  9  2  0  0  0  0
  6 10  1  0  0  0  0
  3 11  1  0  0  0  0
 10 11  1  0  0  0  0
  1 12  1  0  0  0  0
  1 13  1  0  0  0  0
  1 14  1  0  0  0  0
  2 15  1  0  0  0  0
  2 16  1  0  0  0  0
  3 17  1  0  0  0  0
  4 18  1  0  0  0  0
  4 19  1  0  0  0  0
  5 20  1  0  0  0  0
  5 21  1  0  0  0  0
  6 22  1  0  0  0  0
  8 23  1  0  0  0  0
 10 24  1  0  0  0  0
 10 25  1  0  0  0  0
 11 26  1  0  0  0  0
 11 27  1  0  0  0  0
M  CHG  1   1   1
M  END
