  21

 N         -1.8661224456        0.0002030112        0.8001165665
 C         -1.0964841033        0.0002249362       -0.4859418288
 C         -0.2326964283        1.2719175926       -0.6346883658
 C          0.9807359643        1.2694218817        0.3121566674
 C          1.8307424596       -0.0003252829        0.1327939020
 C          0.9803507987       -1.2698535893        0.3118676882
 C         -0.2330963282       -1.2717146400       -0.6349645410
 H         -2.4640076691        0.8307863811        0.8722289276
 H         -1.2334399202       -0.0005089072        1.6072402934
 H         -2.4650405649       -0.8296914629        0.8715522882
 H         -1.8435077986        0.0004363828       -1.3001481839
 H         -0.8516408850        2.1583649586       -0.4545791093
 H          0.1158616068        1.3592146907       -1.6697867990
 H          0.6409141784        1.3398823721        1.3509672990
 H          1.5941612550        2.1653103025        0.1484255045
 H          2.6757475546       -0.0005341293        0.8338180786
 H          2.2790169296       -0.0002942368       -0.8674591921
 H          0.6405564824       -1.3405711788        1.3506671548
 H          1.5935108275       -2.1658703463        0.1478039897
 H         -0.8523094468       -2.1580040334       -0.4550350142
 H          0.1153963303       -1.3589145177       -1.6700846686
          21
        -22.60177480
 N         -2.4300662751        0.0001194730        0.0677459251
 C         -0.9818308898        0.0000047098       -0.3230969775
 C         -0.2633195234        1.2644200242        0.1838814233
 C          1.2237110630        1.2693748604       -0.2160622683
 C          1.9379126774       -0.0000274975        0.2820884715
 C          1.2235173945       -1.2694204103       -0.2161761646
 C         -0.2634064937       -1.2644845595        0.1839965870
 H         -2.9086567678        0.8309032327       -0.2935951006
 H         -2.5219877126       -0.0016111772        1.0878683245
 H         -2.9093094504       -0.8293257678       -0.2958158284
 H         -0.9300440972       -0.0000781030       -1.4241124738
 H         -0.3513933863        1.3055002792        1.2738133307
 H         -0.7722414316        2.1615007329       -0.1869081344
 H          1.7229663613        2.1688402092        0.1667209691
 H          1.3073038220        1.3297115672       -1.3070084442
 H          1.9573438180        0.0002250295        1.3777595540
 H          2.9900287166       -0.0000258472       -0.0307340351
 H          1.7229811681       -2.1688577889        0.1664137050
 H          1.3072817069       -1.3294397420       -1.3070856214
 H         -0.3515115293       -1.3059146303        1.2738974912
 H         -0.7721806709       -2.1615048742       -0.1870066191
