49
0.602
N            8.50601   1.82478  -0.11801
C            8.72298   0.58839   0.68738
C            8.09695  -0.65314   0.04927
C            6.60575  -0.65829   0.06897
C            5.81570  -1.76434   0.17134
C            4.42583  -1.48842   0.14790
C            4.12373  -0.15635   0.02432
C            2.80691   0.40403  -0.02898
C            2.49110   1.73656  -0.14937
C            1.10672   2.02462  -0.18113
C            0.62749   3.42871  -0.30710
C            0.30893   0.88653  -0.08626
C           -1.12671   0.72525  -0.08661
C           -2.03731   1.78248  -0.20651
C           -3.40819   1.59880  -0.20601
C           -4.00467   0.34030  -0.08393
C           -5.44636   0.14836  -0.10702
C           -6.43183   0.99951   0.35947
C           -6.19464   2.29656   1.05224
C           -7.74631   0.49801   0.13839
C           -7.78433  -0.71515  -0.46108
S           -6.19628  -1.27726  -0.77184
C           -3.12678  -0.77714   0.02814
N           -3.47234  -2.05605   0.16627
S           -2.11086  -2.95149   0.27158
N           -1.02562  -1.73493   0.15924
C           -1.68760  -0.58504   0.03207
S            1.34062  -0.50431   0.04892
S            5.60691   0.74713  -0.05811
H            8.93879   1.74079  -1.05025
H            8.90032   2.66223   0.33870
H            7.49950   1.98439  -0.25962
H            8.30765   0.72940   1.69216
H            9.80156   0.44224   0.82816
H            8.45733  -1.55722   0.55420
H            8.43526  -0.73798  -0.98893
H            6.21682  -2.76345   0.25739
H            3.66628  -2.25295   0.21772
H            3.24805   2.50242  -0.21539
H            0.01055   3.71157   0.54638
H            0.05904   3.56878  -1.22695
H            1.46777   4.12329  -0.33977
H           -1.66546   2.78375  -0.31584
H           -4.04544   2.45446  -0.34984
H           -7.01141   2.52329   1.73799
H           -6.12650   3.11619   0.33609
H           -5.27617   2.26703   1.63928
H           -8.63190   1.04103   0.43469
H           -8.67399  -1.26417  -0.70963
