 xtb: 6.5.1 (fef0646)
          01242310123D

 16 14  0     0  0            999 V2000
   -0.1735   -1.7563   -0.6863 N   0  0  0  0  0  0  0  0  0  0  0  0
    0.7595   -1.6533    0.4671 C   0  0  0  0  0  0  0  0  0  0  0  0
    1.0426   -0.2051    0.8295 C   0  0  0  0  0  0  0  0  0  0  0  0
    1.8347    0.6877   -0.5016 S   0  0  0  0  0  0  0  0  0  0  0  0
    1.8777    2.2808    0.2751 C   0  0  0  0  0  0  0  0  0  0  0  0
   -3.0724   -0.0250    0.1150 Cl  0  0  0  0  0  0  0  0  0  0  0  0
   -0.3877   -2.7356   -0.9355 H   0  0  0  0  0  0  0  0  0  0  0  0
    0.2274   -1.2971   -1.5205 H   0  0  0  0  0  0  0  0  0  0  0  0
   -1.0676   -1.2762   -0.4762 H   0  0  0  0  0  0  0  0  0  0  0  0
    1.7004   -2.1622    0.2233 H   0  0  0  0  0  0  0  0  0  0  0  0
    0.3415   -2.1908    1.3285 H   0  0  0  0  0  0  0  0  0  0  0  0
    1.6821   -0.1360    1.7144 H   0  0  0  0  0  0  0  0  0  0  0  0
    0.1095    0.3100    1.0721 H   0  0  0  0  0  0  0  0  0  0  0  0
    0.8689    2.6206    0.5027 H   0  0  0  0  0  0  0  0  0  0  0  0
    2.3449    3.0051   -0.3896 H   0  0  0  0  0  0  0  0  0  0  0  0
    2.4513    2.2382    1.1993 H   0  0  0  0  0  0  0  0  0  0  0  0
  1  2  1  0  0  0  0
  2  3  1  0  0  0  0
  3  4  1  0  0  0  0
  4  5  1  0  0  0  0
  1  7  1  0  0  0  0
  1  8  1  0  0  0  0
  1  9  1  0  0  0  0
  2 10  1  0  0  0  0
  2 11  1  0  0  0  0
  3 12  1  0  0  0  0
  3 13  1  0  0  0  0
  5 14  1  0  0  0  0
  5 15  1  0  0  0  0
  5 16  1  0  0  0  0
M  END
