 xtb: 6.5.1 (fef0646)
          01232313423D

 19 18  0     0  0            999 V2000
    2.0102    0.0631    0.2038 N   0  0  0  0  0  0  0  0  0  0  0  0
    0.8533    0.1743   -0.6900 C   0  0  0  0  0  0  0  0  0  0  0  0
    0.0072   -1.1094   -0.6258 C   0  0  0  0  0  0  0  0  0  0  0  0
   -1.1960   -0.7512    0.2439 C   0  0  0  0  0  0  0  0  0  0  0  0
   -1.4697    0.7002   -0.1324 C   0  0  0  0  0  0  0  0  0  0  0  0
   -0.0694    1.3088   -0.2055 C   0  0  0  0  0  0  0  0  0  0  0  0
    1.3202   -0.4582    2.9983 Cl  0  0  0  0  0  0  0  0  0  0  0  0
    2.6233   -0.6922   -0.0848 H   0  0  0  0  0  0  0  0  0  0  0  0
    1.5933   -0.2208    1.6598 H   0  0  0  0  0  0  0  0  0  0  0  0
    2.5404    0.9282    0.2189 H   0  0  0  0  0  0  0  0  0  0  0  0
    1.1863    0.3588   -1.7224 H   0  0  0  0  0  0  0  0  0  0  0  0
    0.5783   -1.9395   -0.2140 H   0  0  0  0  0  0  0  0  0  0  0  0
   -0.3249   -1.3828   -1.6281 H   0  0  0  0  0  0  0  0  0  0  0  0
   -0.9223   -0.8138    1.2958 H   0  0  0  0  0  0  0  0  0  0  0  0
   -2.0482   -1.4031    0.0612 H   0  0  0  0  0  0  0  0  0  0  0  0
   -2.1003    1.2110    0.5926 H   0  0  0  0  0  0  0  0  0  0  0  0
   -1.9561    0.7489   -1.1086 H   0  0  0  0  0  0  0  0  0  0  0  0
    0.2463    1.6119    0.7926 H   0  0  0  0  0  0  0  0  0  0  0  0
   -0.0301    2.1781   -0.8607 H   0  0  0  0  0  0  0  0  0  0  0  0
  1  2  1  0  0  0  0
  2  3  1  0  0  0  0
  3  4  1  0  0  0  0
  4  5  1  0  0  0  0
  2  6  1  0  0  0  0
  5  6  1  0  0  0  0
  1  8  1  0  0  0  0
  7  9  1  0  0  0  0
  1 10  1  0  0  0  0
  2 11  1  0  0  0  0
  3 12  1  0  0  0  0
  3 13  1  0  0  0  0
  4 14  1  0  0  0  0
  4 15  1  0  0  0  0
  5 16  1  0  0  0  0
  5 17  1  0  0  0  0
  6 18  1  0  0  0  0
  6 19  1  0  0  0  0
M  END
