26
 xtb: 6.5.1 (fef0646)
N           -3.16647340288095       -0.39126560550946       -1.49494104683248
C           -3.26144818059819        1.06496020101246       -1.20303864796646
C           -2.67904572049165        1.42959374432146        0.16392620899234
C           -1.19826620324938        1.26977990000065        0.25659410021506
C           -0.36307271954695        2.06324401688608        0.97979148405820
C            1.00610257661147        1.67793629581297        0.91295823598274
C            1.23495878211806        0.57823706938369        0.13508981522949
C            2.52071388435560       -0.03485516338481       -0.10572574079187
C            2.73664631535440       -1.15418016563998       -0.86029856556256
C            4.10374158294373       -1.53925071545520       -0.93161059393651
C            4.92770167390537       -0.71792896820110       -0.23791806393736
S            4.04271996254983        0.56698742993548        0.50057855038034
S           -0.27944281103964        0.01236843085458       -0.50699450707500
Cl          -4.95241344317609       -2.05837323950918        1.07327315445552
H           -3.71124663713153       -0.94447125378352       -0.72919720915632
H           -2.20521147288308       -0.73038276891363       -1.39598651785833
H           -3.55483436219804       -0.69078750417739       -2.37867623655671
H           -4.30739952725022        1.36655082829275       -1.27857081454242
H           -2.72842243416853        1.57949103430830       -2.00041336793671
H           -3.14886288624143        0.84036959628613        0.93945721312220
H           -2.92923510274129        2.48213704733016        0.38161149775511
H           -0.71137150598158        2.90646546623981        1.55649319917655
H            1.79807684182242        2.19715370784647        1.43086702308074
H            1.94872397963170       -1.65165499982700       -1.40330117886429
H            4.45674100396875       -2.36958025416157       -1.52657725208128
H            5.99282834343805       -0.83482650476282       -0.14410750395802
