25
 xtb: 6.5.1 (fef0646)
N           -2.06539034561945       -1.72084248576544       -1.25946822567203
C           -0.61774489989909       -2.02475462798538       -1.39692271094330
C            0.02212340550057       -2.44606061577334       -0.07698731290645
C            0.15708443646628       -1.30263549213438        0.93518914673279
C            1.03109334732406       -0.18128660246000        0.44746691347015
C            2.39996206705476       -0.36615340037574        0.30763844138554
C            3.20386581733583        0.65054295288129       -0.17062808915411
C            2.64732059294366        1.86565661550971       -0.51754775147841
C            1.28753345173332        2.06320575661842       -0.38205199778097
C            0.48479172780809        1.04619090846846        0.09744221386235
Cl          -2.87647367368598        1.30202528103132        0.94636056500441
H           -2.54774902022272       -1.38992937858672       -2.09392308362909
H           -2.21462182423208       -0.84295704482224       -0.56073020948867
H           -2.61930939076089       -2.43887759260435       -0.79602487759516
H           -0.12037234449812       -1.11907066939075       -1.78856820947191
H           -0.56837275172122       -2.77105316875209       -2.13514496632789
H            0.99354755160679       -2.85657396534328       -0.29259950041126
H           -0.57760782917879       -3.25041059210035        0.35874565624031
H            0.59062108664081       -1.68958086924970        1.88010650849560
H           -0.81470223980814       -0.90019759428989        1.22107104581569
H            2.84235135901607       -1.31215556330476        0.58656232441262
H            4.27471076159953        0.49758928831129       -0.27004162866789
H            3.28059942587197        2.65969451446600       -0.89653073157191
H            0.85565888056115        3.00863050799915       -0.66119575571870
H           -0.56826439402048        1.19758411564301        0.20322646912268
