  41

 N         -7.5357782751       -0.3803681628        0.0005716500
 C         -6.3012584372        0.4612922661       -0.0016207345
 C         -5.0285755652       -0.3752919001        0.0002179730
 C         -3.7520016832        0.4686109957       -0.0006546370
 C         -2.4750149688       -0.3732182464        0.0003318473
 C         -1.1980827076        0.4686311956        0.0005731450
 C          0.0781506232       -0.3743102385        0.0003749946
 C          1.3560353453        0.4661254513        0.0008907745
 C          2.6311277733       -0.3783448633       -0.0001027035
 C          3.9101745874        0.4601494597        0.0004988088
 C          5.1837542190       -0.3866060885       -0.0006445327
 C          6.4648727605        0.4493211283        0.0002291067
 C          7.7274272660       -0.3998975266       -0.0007521984
 H         -8.3931629643        0.1931699300       -0.0008463379
 H         -7.5688324113       -0.9878833374        0.8327957150
 H         -7.5689079260       -0.9921194456       -0.8285395440
 H         -6.3109574753        1.1264639267        0.8695373846
 H         -6.3111772259        1.1223383424       -0.8759175233
 H         -5.0298806922       -1.0431796550       -0.8679455446
 H         -5.0305289104       -1.0403264505        0.8705719895
 H         -3.7524608180        1.1357589395        0.8682203133
 H         -3.7523587381        1.1338563177       -0.8709886333
 H         -2.4746395871       -1.0399813671       -0.8689870040
 H         -2.4754470570       -1.0392301523        0.8702248244
 H         -1.1978004713        1.1347440143        0.8703749871
 H         -1.1977496449        1.1351484378       -0.8689150736
 H          0.0776321012       -1.0403800621       -0.8695373289
 H          0.0774288865       -1.0411794157        0.8696720601
 H          1.3572942255        1.1316987367        0.8711503051
 H          1.3569835825        1.1332144427       -0.8682050837
 H          2.6295280578       -1.0439976983       -0.8704055804
 H          2.6297971884       -1.0456676639        0.8689189473
 H          3.9124863628        1.1256079299        0.8709241676
 H          3.9121292083        1.1274273621       -0.8685329570
 H          5.1811527771       -1.0521142392       -0.8710858209
 H          5.1813279843       -1.0541751667        0.8682166283
 H          6.4617696566        1.1161186775        0.8710941312
 H          6.4617109000        1.1180667440       -0.8691399688
 H          7.7689263031       -1.0469375670        0.8762181375
 H          8.6315894495        0.2111290123       -0.0000340882
 H          7.7689441800       -1.0449035718       -0.8792190249
          41
        -42.48218477
 N         -6.6895561800       -1.0861771106        0.4830630298
 C         -6.3986510955        0.1303861364       -0.3329373109
 C         -5.0855887038        0.8043560123        0.0524285892
 C         -3.8504230667       -0.0403731712       -0.2637448605
 C         -2.5373621272        0.6629159719        0.0854782808
 C         -1.2998516387       -0.1777605036       -0.2325552922
 C          0.0126409222        0.5246270792        0.1190993872
 C          1.2502586892       -0.3142507587       -0.2033484408
 C          2.5629574023        0.3864757851        0.1503964809
 C          3.8002617801       -0.4484180423       -0.1834064438
 C          5.1133571084        0.2498896528        0.1734661734
 C          6.3508590644       -0.5838013208       -0.1642270802
 C          7.6541702894        0.1119977733        0.1998418697
 H         -7.6041202846       -1.4984311501        0.2420924960
 H         -6.7073545039       -0.8607120939        1.4889513894
 H         -5.9773595821       -1.8176952848        0.3417246676
 H         -7.2312422559        0.8364565599       -0.2230382465
 H         -6.3798112715       -0.1397849565       -1.3949738185
 H         -5.1001232985        1.0420480337        1.1215582800
 H         -4.9975519298        1.7714603878       -0.4567065265
 H         -3.8516813636       -0.3077422516       -1.3260966387
 H         -3.9048227637       -0.9939446960        0.2715155661
 H         -2.5360950584        0.9305654376        1.1478726106
 H         -2.4790836700        1.6174966606       -0.4490635944
 H         -1.3003465938       -0.4433561973       -1.2954654898
 H         -1.3586354872       -1.1333146620        0.3001215633
 H          0.0144854230        0.7875722477        1.1826952460
 H          0.0699884908        1.4816115626       -0.4112586847
 H          1.2491436427       -0.5750154401       -1.2674418800
 H          1.1920316094       -1.2722459831        0.3250031824
 H          2.5678940812        0.6400586249        1.2163254348
 H          2.6177726001        1.3481291919       -0.3718568707
 H          3.7964403238       -0.6992567034       -1.2500025281
 H          3.7440334473       -1.4114429118        0.3361943819
 H          5.1187472326        0.4981412753        1.2406882733
 H          5.1688008862        1.2142169717       -0.3438453822
 H          6.3418125705       -0.8279940919       -1.2335704525
 H          6.2862881020       -1.5513389396        0.3484771915
 H          7.7569418356        1.0603564430       -0.3287525955
 H          8.5257517530       -0.4964383419       -0.0471627845
 H          7.7003543664        0.3311639262        1.2671883658
