  41

 N          0.8276679128        0.0016674484       -0.0136340811
 C          2.3271992515        0.0039440907       -0.0280070036
 C          2.8466412543       -0.1136789300       -1.4524360775
 C          4.3779702103       -0.1137202228       -1.4772267008
 C          4.9153077615       -0.2298168835       -2.9026791231
 C          6.4420798767       -0.2317776250       -2.9323041169
 C          6.9825495188       -0.3461737566       -4.3557476360
 C          8.5089632263       -0.3486670127       -4.3876297379
 C          9.0503568283       -0.4625973384       -5.8104643354
 C         10.5767138311       -0.4653486300       -5.8452271337
 C         11.1152310880       -0.5792966184       -7.2691194288
 C         12.6413669874       -0.5825955972       -7.3104871688
 C         13.1675936168       -0.6966489337       -8.7357484282
 H          0.4582931596        0.0807180963        0.9420729638
 H          0.4791625610       -0.8700379184       -0.4344149699
 H          0.4752946419        0.7897689369       -0.5731991524
 H          2.6785310256       -0.8339120956        0.5756285248
 H          2.6744415414        0.9318383265        0.4283354623
 H          2.4859105228        0.7240032649       -2.0527619488
 H          2.4882836864       -1.0399008520       -1.9062299365
 H          4.7517020057       -0.9491806157       -0.8833615972
 H          4.7494451224        0.8082291155       -1.0273828457
 H          4.5460000447        0.6061015254       -3.5002308476
 H          4.5465305249       -1.1517097372       -3.3569215703
 H          6.8149501943       -1.0680515192       -2.3373135928
 H          6.8144729220        0.6890961895       -2.4787404497
 H          6.6112607839        0.4901453594       -4.9522775536
 H          6.6113233953       -1.2670415207       -4.8110774059
 H          8.8815634059       -1.1851088037       -3.7919931137
 H          8.8814878336        0.5719534004       -3.9327294301
 H          8.6780445659        0.3738298409       -6.4066007653
 H          8.6780748163       -1.3832389624       -6.2659086116
 H         10.9502656004       -1.3018157005       -5.2498034457
 H         10.9502287897        0.4551899199       -5.3904266129
 H         10.7414092730        0.2573475900       -7.8642305725
 H         10.7414218631       -1.4999422139       -7.7235989582
 H         13.0165314836       -1.4194086890       -6.7168887777
 H         13.0165189849        0.3379746491       -6.8575241582
 H         12.8206194289       -1.6182071624       -9.1981322700
 H         14.2547763878       -0.6972869899       -8.7437645004
 H         12.8206140708        0.1396465749       -9.3388028926
