28
 xtb: 6.5.1 (fef0646)
N           -2.80473812225056       -1.19783579095334        1.10740317894174
C           -2.00349262593875       -1.84730327826343        0.01324048067683
C           -2.63588829632875       -1.61476472000319       -1.35376134607029
C           -0.56160861918344       -1.40002101148355        0.04254564627914
C            0.46509345816552       -2.36416096374936        0.09332423461447
C            1.77700916556304       -1.99868419681628        0.09489007043382
C           -0.22803423313697       -0.07438485340256       -0.01022206624729
C            1.12286298360792        0.34310560811608       -0.00918583052078
C            2.14362436094463       -0.63544906928846        0.04396267434289
C            3.49465477120818       -0.21874540899102        0.04268229751180
C            3.81165497440058        1.10562557741587       -0.00943205412517
C            2.80068822253279        2.07557774666100       -0.06209030451863
C            1.48807948043859        1.70813813557079       -0.06174635834183
Cl          -2.69499138794605        2.48906498507639       -0.03482863674465
H           -2.38141676946587       -1.19313602385254        1.99901983607666
H           -3.77655814580198       -1.43320870254082        1.11191335521783
H           -2.84332948778939       -0.08429455778283        0.84855668637743
H           -2.04131464612628       -2.88353328657611        0.27597372493566
H           -3.66630329591824       -1.95818499284594       -1.38091288552928
H           -2.07716273275638       -2.18178293958747       -2.11700570445116
H           -2.61340664839390       -0.57453755056167       -1.64639335643107
H            0.18351163289343       -3.39744482444240        0.12282717384243
H            2.54146283337286       -2.75003379070185        0.12511764843937
H           -0.98796614438793        0.68843835771221       -0.05130082669193
H            4.27288536378504       -0.97380651279356        0.07797790450133
H            4.85668462457000        1.40120706250952       -0.00884905879937
H            3.08634325099177        3.11619681537732       -0.09606147946592
H            0.72782801197905        2.45832947147608       -0.09634053092985
