 xtb: 6.5.1 (fef0646)
          02032321513D

 28 28  0     0  0            999 V2000
   -2.8091   -1.0484    1.0544 N   0  0  0  0  0  0  0  0  0  0  0  0
   -2.0154   -1.7964    0.0267 C   0  0  0  0  0  0  0  0  0  0  0  0
   -2.6254   -1.6296   -1.3598 C   0  0  0  0  0  0  0  0  0  0  0  0
   -0.5640   -1.3798    0.0440 C   0  0  0  0  0  0  0  0  0  0  0  0
    0.4540   -2.3531    0.0878 C   0  0  0  0  0  0  0  0  0  0  0  0
    1.7694   -1.9975    0.0867 C   0  0  0  0  0  0  0  0  0  0  0  0
   -0.2164   -0.0588   -0.0086 C   0  0  0  0  0  0  0  0  0  0  0  0
    1.1359    0.3488   -0.0099 C   0  0  0  0  0  0  0  0  0  0  0  0
    2.1487   -0.6373    0.0392 C   0  0  0  0  0  0  0  0  0  0  0  0
    3.5020   -0.2275    0.0383 C   0  0  0  0  0  0  0  0  0  0  0  0
    3.8262    1.0954   -0.0085 C   0  0  0  0  0  0  0  0  0  0  0  0
    2.8218    2.0724   -0.0571 C   0  0  0  0  0  0  0  0  0  0  0  0
    1.5078    1.7118   -0.0582 C   0  0  0  0  0  0  0  0  0  0  0  0
   -2.7353    2.3316    0.0080 Cl  0  0  0  0  0  0  0  0  0  0  0  0
   -2.3844   -1.1347    1.9870 H   0  0  0  0  0  0  0  0  0  0  0  0
   -3.7787   -1.3889    1.1038 H   0  0  0  0  0  0  0  0  0  0  0  0
   -2.8420   -0.0445    0.8132 H   0  0  0  0  0  0  0  0  0  0  0  0
   -2.0528   -2.8640    0.2976 H   0  0  0  0  0  0  0  0  0  0  0  0
   -3.6644   -1.9591   -1.3818 H   0  0  0  0  0  0  0  0  0  0  0  0
   -2.0731   -2.1982   -2.1088 H   0  0  0  0  0  0  0  0  0  0  0  0
   -2.6059   -0.5831   -1.6623 H   0  0  0  0  0  0  0  0  0  0  0  0
    0.1779   -3.3936    0.1206 H   0  0  0  0  0  0  0  0  0  0  0  0
    2.5375   -2.7516    0.1213 H   0  0  0  0  0  0  0  0  0  0  0  0
   -0.9829    0.6942   -0.0495 H   0  0  0  0  0  0  0  0  0  0  0  0
    4.2740   -0.9774    0.0755 H   0  0  0  0  0  0  0  0  0  0  0  0
    4.8614    1.3965   -0.0082 H   0  0  0  0  0  0  0  0  0  0  0  0
    3.0943    3.1148   -0.0932 H   0  0  0  0  0  0  0  0  0  0  0  0
    0.7348    2.4607   -0.0943 H   0  0  0  0  0  0  0  0  0  0  0  0
  1  2  1  0  0  0  0
  2  3  1  0  0  0  0
  2  4  1  0  0  0  0
  4  5  4  0  0  0  0
  5  6  2  0  0  0  0
  4  7  2  0  0  0  0
  7  8  4  0  0  0  0
  6  9  4  0  0  0  0
  8  9  4  0  0  0  0
  9 10  4  0  0  0  0
 10 11  2  0  0  0  0
 11 12  4  0  0  0  0
  8 13  4  0  0  0  0
 12 13  2  0  0  0  0
  1 15  1  0  0  0  0
  1 16  1  0  0  0  0
  1 17  1  0  0  0  0
  2 18  1  0  0  0  0
  3 19  1  0  0  0  0
  3 20  1  0  0  0  0
  3 21  1  0  0  0  0
  5 22  1  0  0  0  0
  6 23  1  0  0  0  0
  7 24  1  0  0  0  0
 10 25  1  0  0  0  0
 11 26  1  0  0  0  0
 12 27  1  0  0  0  0
 13 28  1  0  0  0  0
M  END
