18
 xtb: 6.5.1 (fef0646)
N           -0.32450494005894       -0.07870949664725        0.80427553484902
C            0.69176088564666        0.28168833907716       -0.23071010719368
C            2.09197555390117        0.58950433563473        0.32656134682865
C            2.74036990878805       -0.64636850246274        0.95075059824416
C            2.99165097601655        1.17468056193361       -0.76643665335445
Cl          -3.23989566651592       -0.50298018171785       -0.46572272190196
H           -1.21131218041750       -0.21523437861358        0.46580231797166
H           -0.32255393689794        0.67315262030861        1.56293411495064
H            0.01146555122954       -0.93904710723775        1.33861091319016
H            0.35074374052581        1.15909842572609       -0.76653841947991
H            0.78840837324326       -0.51909156169876       -0.94638443369446
H            2.01756764770843        1.35782625011514        1.11908706927696
H            2.86549999078506       -1.44025340903751        0.21168393412556
H            2.19300684056324       -1.03048174443634        1.78551920100546
H            3.77861269472202       -0.42403540822301        1.31905555912201
H            2.58609724097850        2.08233365035117       -1.20359488068623
H            3.14414087595195        0.45783458642945       -1.58400280618374
H            4.01095900442501        1.42564692933797       -0.39807033621558
