 xtb: 6.5.1 (fef0646)
          01242310043D

 16 15  0     0  0            999 V2000
   -1.2801    1.8388    0.5592 N   0  0  0  0  0  0  0  0  0  0  0  0
   -0.1255    1.7860   -0.3771 C   0  0  0  0  0  0  0  0  0  0  0  0
    0.7090    0.5749   -0.1774 C   0  0  0  0  0  0  0  0  0  0  0  0
    0.2491   -0.7011   -0.1573 C   0  0  0  0  0  0  0  0  0  0  0  0
    1.2710   -1.6736    0.0541 C   0  0  0  0  0  0  0  0  0  0  0  0
    2.5008   -1.1300    0.1930 C   0  0  0  0  0  0  0  0  0  0  0  0
    2.4311    0.5912    0.0672 S   0  0  0  0  0  0  0  0  0  0  0  0
   -3.2243   -1.0058   -0.1502 Cl  0  0  0  0  0  0  0  0  0  0  0  0
   -1.8427    2.6975    0.4413 H   0  0  0  0  0  0  0  0  0  0  0  0
   -0.9575    1.8025    1.5382 H   0  0  0  0  0  0  0  0  0  0  0  0
   -1.9072    1.0262    0.4111 H   0  0  0  0  0  0  0  0  0  0  0  0
    0.4993    2.6777   -0.2482 H   0  0  0  0  0  0  0  0  0  0  0  0
   -0.4813    1.8143   -1.4137 H   0  0  0  0  0  0  0  0  0  0  0  0
   -0.7949   -0.9503   -0.2772 H   0  0  0  0  0  0  0  0  0  0  0  0
    1.0772   -2.7360    0.1000 H   0  0  0  0  0  0  0  0  0  0  0  0
    3.4098   -1.6782    0.3603 H   0  0  0  0  0  0  0  0  0  0  0  0
  1  2  1  0  0  0  0
  2  3  1  0  0  0  0
  3  4  2  0  0  0  0
  4  5  4  0  0  0  0
  5  6  2  0  0  0  0
  3  7  1  0  0  0  0
  6  7  1  0  0  0  0
  1  9  1  0  0  0  0
  1 10  1  0  0  0  0
  1 11  1  0  0  0  0
  2 12  1  0  0  0  0
  2 13  1  0  0  0  0
  4 14  1  0  0  0  0
  5 15  1  0  0  0  0
  6 16  1  0  0  0  0
M  END
