37
 xtb: 6.5.1 (fef0646)
N            3.99560773699284       -0.31702328643673       -1.20811872905134
C            3.83815989347297       -1.09948906177343        0.04293719872359
C            3.25856945341816       -0.23165963507752        1.15387641824827
O            2.03283834003610        0.38468045981317        0.77533573705249
C            0.91635980967177       -0.43305322248037        0.75899650065990
C           -0.29828180325670        0.14143954258355        0.29681520610818
C           -0.35925928584957        1.50053892683530       -0.11222068314023
C           -1.51386470979226        2.05629955362303       -0.55216522848027
C           -1.47366271358562       -0.64219323515913        0.24138653281861
C           -1.44926551955055       -1.99745353977260        0.64669778529844
C           -0.24183601510654       -2.53545141132504        1.10971995900656
C            0.89863208273302       -1.77715618996794        1.16647259121849
C           -2.64980059693895       -2.76256325961910        0.57631035653494
C           -3.80658412025007       -2.21519580082219        0.13351394578275
C           -3.86793915418206       -0.84892000427754       -0.27892527220126
C           -5.04781137131211       -0.25696922317159       -0.73514813389718
C           -5.06927264970221        1.06756522831116       -1.12267593488426
C           -3.92549443443835        1.83744650112737       -1.06965823724489
C           -2.71850105200766        1.29372645075165       -0.62264732439459
C           -2.68949797914499       -0.06447283527738       -0.22201935274672
Cl           6.30854362373463        2.59447963932567       -0.30139591023846
H            4.41553638887701       -0.80544198265869       -1.96638312471182
H            4.67366837950483        0.53478044360639       -1.00310858386966
H            3.13103261798081        0.14608093421708       -1.47055436061270
H            4.81682227416776       -1.49445079533059        0.36209510859826
H            3.20233780756007       -1.91227392532104       -0.16923187674316
H            3.94586824971645        0.60729669501200        1.40938184222139
H            3.11458796617663       -0.76986941875825        2.09626898471734
H            0.54129960826130        2.09519007454003       -0.05452353051130
H           -1.54134691570195        3.09383378708457       -0.85162937134773
H           -0.20593862422665       -3.56235050902364        1.41073148961962
H            1.81167204478357       -2.22256364592405        1.52498207516066
H           -2.60826213176794       -3.79405384069596        0.87788979556446
H           -4.69407304638447       -2.81082883302363        0.08575149298913
H           -5.94081267254114       -0.85328905981504       -0.77891622411901
H           -5.99031420169226        1.50149318642533       -1.46783778171391
H           -3.95550244965228        2.86961110610827       -1.37130653334607
