34
1.338
N            3.95941   1.40426  -1.60706
C            2.62603   1.02895  -1.05580
C            2.57580  -0.42668  -0.60538
C            1.24736  -0.80886  -0.02342
C            0.22370  -1.26801  -0.84035
C           -1.01007  -1.57831  -0.31485
C            0.99969  -0.65843   1.33408
C           -0.23317  -0.96683   1.86399
C           -1.25987  -1.42791   1.04552
N           -2.52242  -1.70193   1.57343
N           -3.57189  -1.17465   1.15731
C           -3.59829  -0.14901   0.21059
C           -2.86776   1.01968   0.40732
C           -2.86990   2.01679  -0.54232
C           -3.60549   1.86636  -1.70194
C           -4.34041   0.71485  -1.90801
C           -4.33885  -0.28503  -0.96064
Cl           6.26820   0.68597   0.94313
H            3.99917   2.39373  -1.88565
H            4.19133   0.83193  -2.42901
H            4.69619   1.24190  -0.90005
H            1.84672   1.21184  -1.80472
H            2.37690   1.68201  -0.21139
H            3.36442  -0.61349   0.13127
H            2.80830  -1.08494  -1.44872
H            0.40244  -1.37339  -1.89702
H           -1.80374  -1.92802  -0.95165
H            1.78459  -0.28943   1.97247
H           -0.42371  -0.84375   2.91584
H           -2.29285   1.12540   1.31074
H           -2.29518   2.91437  -0.38138
H           -3.60619   2.64694  -2.44516
H           -4.91460   0.59768  -2.81265
H           -4.90308  -1.18811  -1.11570
