 xtb: 6.5.1 (fef0646)
          01242316583D

 34 34  0     0  0            999 V2000
    4.9683    0.6060    0.8558 N   0  0  0  0  0  0  0  0  0  0  0  0
    3.6554   -0.0722    1.0531 C   0  0  0  0  0  0  0  0  0  0  0  0
    2.5605    0.5231    0.1752 C   0  0  0  0  0  0  0  0  0  0  0  0
    1.2410   -0.1716    0.3369 C   0  0  0  0  0  0  0  0  0  0  0  0
    0.9227   -1.2746   -0.4434 C   0  0  0  0  0  0  0  0  0  0  0  0
   -0.2761   -1.9317   -0.2794 C   0  0  0  0  0  0  0  0  0  0  0  0
    0.3342    0.2460    1.3009 C   0  0  0  0  0  0  0  0  0  0  0  0
   -0.8653   -0.4083    1.4689 C   0  0  0  0  0  0  0  0  0  0  0  0
   -1.1924   -1.5041    0.6768 C   0  0  0  0  0  0  0  0  0  0  0  0
   -2.4206   -2.1503    0.8247 N   0  0  0  0  0  0  0  0  0  0  0  0
   -3.5196   -1.5686    0.7463 N   0  0  0  0  0  0  0  0  0  0  0  0
   -3.6632   -0.2337    0.3645 C   0  0  0  0  0  0  0  0  0  0  0  0
   -3.1265    0.2244   -0.8355 C   0  0  0  0  0  0  0  0  0  0  0  0
   -3.2469    1.5473   -1.1981 C   0  0  0  0  0  0  0  0  0  0  0  0
   -3.9093    2.4340   -0.3712 C   0  0  0  0  0  0  0  0  0  0  0  0
   -4.4520    1.9923    0.8199 C   0  0  0  0  0  0  0  0  0  0  0  0
   -4.3319    0.6699    1.1860 C   0  0  0  0  0  0  0  0  0  0  0  0
    5.6598    0.3178   -2.5775 Cl  0  0  0  0  0  0  0  0  0  0  0  0
    5.7122    0.1856    1.4286 H   0  0  0  0  0  0  0  0  0  0  0  0
    4.9061    1.6037    1.0960 H   0  0  0  0  0  0  0  0  0  0  0  0
    5.2559    0.5444   -0.1355 H   0  0  0  0  0  0  0  0  0  0  0  0
    3.3585   -0.0133    2.1067 H   0  0  0  0  0  0  0  0  0  0  0  0
    3.7554   -1.1424    0.8382 H   0  0  0  0  0  0  0  0  0  0  0  0
    2.8668    0.4828   -0.8756 H   0  0  0  0  0  0  0  0  0  0  0  0
    2.4429    1.5883    0.3991 H   0  0  0  0  0  0  0  0  0  0  0  0
    1.6273   -1.6140   -1.1836 H   0  0  0  0  0  0  0  0  0  0  0  0
   -0.5238   -2.7807   -0.8924 H   0  0  0  0  0  0  0  0  0  0  0  0
    0.5787    1.0924    1.9203 H   0  0  0  0  0  0  0  0  0  0  0  0
   -1.5706   -0.0765    2.2107 H   0  0  0  0  0  0  0  0  0  0  0  0
   -2.6079   -0.4726   -1.4705 H   0  0  0  0  0  0  0  0  0  0  0  0
   -2.8222    1.8915   -2.1271 H   0  0  0  0  0  0  0  0  0  0  0  0
   -4.0027    3.4694   -0.6554 H   0  0  0  0  0  0  0  0  0  0  0  0
   -4.9692    2.6840    1.4648 H   0  0  0  0  0  0  0  0  0  0  0  0
   -4.7461    0.3185    2.1149 H   0  0  0  0  0  0  0  0  0  0  0  0
  1  2  1  0  0  0  0
  2  3  1  0  0  0  0
  3  4  1  0  0  0  0
  4  5  4  0  0  0  0
  5  6  4  0  0  0  0
  4  7  4  0  0  0  0
  7  8  4  0  0  0  0
  6  9  4  0  0  0  0
  8  9  4  0  0  0  0
  9 10  1  0  0  0  0
 10 11  2  0  0  0  0
 11 12  1  0  0  0  0
 12 13  4  0  0  0  0
 13 14  4  0  0  0  0
 14 15  4  0  0  0  0
 15 16  4  0  0  0  0
 12 17  4  0  0  0  0
 16 17  4  0  0  0  0
  1 19  1  0  0  0  0
  1 20  1  0  0  0  0
  1 21  1  0  0  0  0
  2 22  1  0  0  0  0
  2 23  1  0  0  0  0
  3 24  1  0  0  0  0
  3 25  1  0  0  0  0
  5 26  1  0  0  0  0
  6 27  1  0  0  0  0
  7 28  1  0  0  0  0
  8 29  1  0  0  0  0
 13 30  1  0  0  0  0
 14 31  1  0  0  0  0
 15 32  1  0  0  0  0
 16 33  1  0  0  0  0
 17 34  1  0  0  0  0
M  END
