 xtb: 6.5.1 (fef0646)
          01242317073D

 19 18  0     0  0            999 V2000
   -1.0955   -2.6197    0.4319 N   0  0  0  0  0  0  0  0  0  0  0  0
   -1.0914   -1.1433    0.6380 C   0  0  0  0  0  0  0  0  0  0  0  0
   -0.3167   -0.4093   -0.4519 C   0  0  0  0  0  0  0  0  0  0  0  0
   -0.2852    1.0644   -0.2463 C   0  0  0  0  0  0  0  0  0  0  0  0
    0.5848    1.7288    0.5538 C   0  0  0  0  0  0  0  0  0  0  0  0
    0.3784    3.1398    0.5746 C   0  0  0  0  0  0  0  0  0  0  0  0
   -0.6474    3.5397   -0.2075 C   0  0  0  0  0  0  0  0  0  0  0  0
   -1.3892    2.1895   -0.9926 S   0  0  0  0  0  0  0  0  0  0  0  0
    2.2901   -3.5586    0.3380 Cl  0  0  0  0  0  0  0  0  0  0  0  0
   -1.5376   -2.8653   -0.4671 H   0  0  0  0  0  0  0  0  0  0  0  0
   -1.5992   -3.1149    1.1805 H   0  0  0  0  0  0  0  0  0  0  0  0
   -0.1290   -2.9789    0.4081 H   0  0  0  0  0  0  0  0  0  0  0  0
   -0.6593   -0.9064    1.6174 H   0  0  0  0  0  0  0  0  0  0  0  0
   -2.1205   -0.7675    0.6758 H   0  0  0  0  0  0  0  0  0  0  0  0
   -0.7578   -0.6268   -1.4305 H   0  0  0  0  0  0  0  0  0  0  0  0
    0.7084   -0.7920   -0.5018 H   0  0  0  0  0  0  0  0  0  0  0  0
    1.3567    1.2320    1.1210 H   0  0  0  0  0  0  0  0  0  0  0  0
    0.9834    3.8170    1.1593 H   0  0  0  0  0  0  0  0  0  0  0  0
   -0.9731    4.5546   -0.3362 H   0  0  0  0  0  0  0  0  0  0  0  0
  1  2  1  0  0  0  0
  2  3  1  0  0  0  0
  3  4  1  0  0  0  0
  4  5  2  0  0  0  0
  5  6  4  0  0  0  0
  6  7  2  0  0  0  0
  4  8  1  0  0  0  0
  7  8  1  0  0  0  0
  1 10  1  0  0  0  0
  1 11  1  0  0  0  0
  1 12  1  0  0  0  0
  2 13  1  0  0  0  0
  2 14  1  0  0  0  0
  3 15  1  0  0  0  0
  3 16  1  0  0  0  0
  5 17  1  0  0  0  0
  6 18  1  0  0  0  0
  7 19  1  0  0  0  0
M  END
