18
 xtb: 6.5.1 (fef0646)
N           -3.36947212247498       -1.80617664225834        0.08705349593121
C           -2.46564715939021       -2.44131823114961       -0.92368705160760
C           -1.38707019742647       -1.47940799785563       -1.41749307550702
C           -0.38554093715585       -1.08066043063318       -0.33122542988759
C            0.66153763317530       -0.09700214777431       -0.82207402186298
I            2.08607266922369        0.50850406894157        0.65231596653215
Cl          -4.38227517058631        1.01536367883495       -0.95141196742030
H           -2.80400528681570       -1.71992311655148        0.99428742600084
H           -4.10436519012318       -2.53685123711640        0.36316672706836
H           -3.72920329125909       -1.00142942217254       -0.18887147454648
H           -3.05469149379509       -2.81282938911212       -1.77106915669945
H           -1.94764143103269       -3.38127399213352       -0.54627384883435
H           -1.88975377862592       -0.58438822589456       -1.79150142399349
H           -0.84577257877259       -1.89398593185883       -2.27171965699541
H            0.10819814300422       -1.97764416696312        0.06966629414001
H           -0.91261424257749       -0.64362332616015        0.52734048496497
H            0.19648182783437        0.81029899170431       -1.19891077335382
H            1.23507911539014       -0.52734834848235       -1.65002763169135
