18
 xtb: 6.5.1 (fef0646)
N           -3.27376411854386       -0.62654058343450       -0.58492189085813
C           -2.39776522037979        0.06358821783049        0.40819577198921
C           -1.01013556794966       -0.56223216291180        0.49632746675112
C           -0.10904661332943        0.12665369724480        1.52359586665909
C            1.29790310683189       -0.45008212363090        1.55528220061715
I            2.44536651959360       -0.03833076770998       -0.19717926356297
Cl          -6.31103483008689        0.85357860457946       -0.64740624411592
H           -4.18850177090150       -0.19828341889543       -0.65456429397218
H           -3.34344327960162       -1.61252816799921       -0.41526625341459
H           -2.82339670703065       -0.52217980455031       -1.55652101492731
H           -2.87224345977595       -0.01471956278862        1.39243340817661
H           -2.32592064371001        1.13084588397576        0.19647614287932
H           -0.51315847842192       -0.46995829051235       -0.50461785274911
H           -1.05508772294948       -1.61138920187326        0.68964691045969
H           -0.57631051737896        0.05353576480014        2.51472363239942
H           -0.05405777786109        1.21574073421969        1.32071300699083
H            1.28688842857673       -1.51079405878843        1.70549696400806
H            1.88495738382041       -0.00824771421836        2.39173528718022
