  28

 N         -3.9588762305        1.3012797754        0.7353690985
 C         -3.9231918540        0.2954698791       -0.3573883057
 C         -2.7036374803       -0.6035289421       -0.2207031197
 O         -1.5140616023        0.1685501644       -0.1963732992
 C         -0.3654911968       -0.5398605439       -0.0813083380
 C         -0.2769079919       -1.9470391926        0.0364554456
 C          0.9374310921       -2.5796888281        0.1550882703
 C          2.1183382133       -1.8660078965        0.1630714193
 C          2.1115516799       -0.4632066020        0.0461881663
 C          3.2990668665        0.2944761386        0.0453352226
 C          3.2560311682        1.6574532803       -0.0769094125
 C          2.0376190377        2.3138375533       -0.2028775768
 C          0.8635230295        1.5999317315       -0.2039608634
 C          0.8713073777        0.2126278506       -0.0792393841
 H         -4.7520047127        1.9537605666        0.6392033457
 H         -3.0849305906        1.8516142274        0.7326664289
 H         -4.0324370341        0.8456396931        1.6568809398
 H         -3.8827340635        0.8153029777       -1.3218354149
 H         -4.8486130045       -0.2929489557       -0.3585197182
 H         -2.6351579993       -1.3101766808       -1.0566563809
 H         -2.7515957946       -1.1688009914        0.7172807293
 H         -1.1744775034       -2.5382614399        0.0345273587
 H          0.9696645569       -3.6540840821        0.2436100538
 H          3.0597248960       -2.3799360523        0.2568712677
 H          4.2449251676       -0.2114292060        0.1406898041
 H          4.1721256821        2.2267341783       -0.0771905551
 H          2.0150551961        3.3873979866       -0.3013061324
 H         -0.0847095649        2.1006779013       -0.3057624967
          28
        -39.37032120
 N         -3.5258352743       -1.1723465167        1.1708413202
 C         -3.5363375341        0.0741301649        0.3629284908
 C         -2.7746028008       -0.1326333825       -0.9377682030
 O         -1.4628058828       -0.6252519885       -0.7047321826
 C         -0.5185048031        0.2908386422       -0.3845165236
 C         -0.7213740029        1.6837253074       -0.2467611676
 C          0.3115701525        2.5271946994        0.0858545864
 C          1.5881033081        2.0477049562        0.2971868100
 C          1.8701061375        0.6743359166        0.1722431105
 C          3.1632864567        0.1522561554        0.3710183094
 C          3.4029653748       -1.1883877849        0.2296980610
 C          2.3719298490       -2.0546697230       -0.1135695030
 C          1.1001735012       -1.5731370098       -0.3112242876
 C          0.8212972282       -0.2153965409       -0.1720688614
 H         -3.9766211597       -1.0483056221        2.0907025328
 H         -2.5524925878       -1.4820544641        1.3245808795
 H         -4.0137403981       -1.9348715759        0.6779433323
 H         -3.0725818673        0.8778882043        0.9442986983
 H         -4.5684834692        0.3890197143        0.1689785806
 H         -2.7223002193        0.7649657533       -1.5643149398
 H         -3.2711193589       -0.9011098246       -1.5437824804
 H         -1.6988890292        2.0992421867       -0.4083622386
 H          0.1233054433        3.5849085541        0.1805025044
 H          2.3840103758        2.7253820591        0.5548299508
 H          3.9653530878        0.8214315479        0.6329196282
 H          4.3978245438       -1.5762155559        0.3821476435
 H          2.5726738081       -3.1080021703       -0.2279877443
 H          0.2970495532       -2.2365071699       -0.5866642345
