  28

 N          2.7656299863        0.6076216415        0.4267476921
 C          2.8418069231       -0.1569909981       -0.8495575660
 C          3.2711569311       -1.5761387839       -0.4632717263
 O          4.3128316832       -1.3815376082        0.4683642124
 C          4.9295443261       -2.4937071872        1.0480223478
 C          4.5799131716       -3.7854612799        0.7710087361
 C          5.2458619788       -4.8418513932        1.4152522471
 C          6.2369993241       -4.5933545828        2.3184300773
 C          6.6199144584       -3.2685921149        2.6185717352
 C          7.6469265814       -2.9833393245        3.5419945768
 C          8.0096007221       -1.6938876081        3.8141983009
 C          7.3637869299       -0.6289026288        3.1699689263
 C          6.3625843392       -0.8697706331        2.2704653925
 C          5.9619301875       -2.1888983518        1.9736788544
 H          2.8897373671        1.6166817117        0.3039535136
 H          3.5611347941        0.1876803569        0.9737378407
 H          1.8884442375        0.4301860332        0.9285681166
 H          3.6123201822        0.2960236002       -1.4748563586
 H          1.8914465441       -0.1500765546       -1.3803254114
 H          3.6155014689       -2.1226959247       -1.3467786862
 H          2.4388777255       -2.1282975447       -0.0056744634
 H          3.8031702009       -4.0228705498        0.0615793277
 H          4.9553895585       -5.8534696606        1.1802526096
 H          6.7458283126       -5.4055139722        2.8136832229
 H          8.1445863625       -3.8084812467        4.0285322087
 H          8.7977267570       -1.4854687844        4.5208968829
 H          7.6662522239        0.3844839639        3.3863793030
 H          5.8836667222       -0.0444005753        1.7621480875
