  15

 N          2.3367583742       -0.0012699667       -0.0100285063
 C          0.8972509317        0.0025313964        0.0307249880
 C          0.1862596798       -1.1988287385        0.0174476924
 C         -1.2048044047       -1.2023535551        0.0016111527
 C         -1.9037254543       -0.0014898334       -0.0067855175
 C         -1.2082101176        1.2013180819       -0.0030998096
 C          0.1829744500        1.2021429540        0.0120342755
 H          2.7575123082       -0.7425112342        0.5569041693
 H          2.7594007804        0.8626010939        0.3411012988
 H          2.7116069787       -0.1257315791       -0.9541222883
 H          0.7275642779       -2.1294260821        0.0138875361
 H         -1.7413559678       -2.1384118917       -0.0063177689
 H         -2.9828015713       -0.0030404383       -0.0196135758
 H         -1.7475928778        2.1357258325       -0.0140219988
 H          0.7203343848        2.1349805254        0.0050268874
          15
        -19.49477964
 N          2.3439353214        0.0001645616        0.0034969046
 C          0.9037992169        0.0066001706       -0.0043031338
 C          0.1974698290       -1.1973142718       -0.0027052926
 C         -1.1935518492       -1.2052103192        0.0006427667
 C         -1.8962174915       -0.0066558289        0.0021560457
 C         -1.2049472017        1.1985017789        0.0005440681
 C          0.1862619591        1.2047930152       -0.0022164934
 H          2.7407422806       -0.4393848506        0.8384135428
 H          2.7613355442        0.9344151410       -0.0276213967
 H          2.7495918301       -0.4963225165       -0.7946490034
 H          0.7422335263       -2.1259413613       -0.0020833655
 H         -1.7270892446       -2.1429898894        0.0033233777
 H         -2.9753491558       -0.0117091511        0.0051686562
 H         -1.7477901062        2.1309469598        0.0015487168
 H          0.7190563738        2.1401836440       -0.0026012922
