  15

 N          2.3262698564        0.0016186866        0.0078014283
 C          0.8902032294       -0.0049557761       -0.0099219199
 C          0.1731725901       -1.2053633448       -0.0033091673
 C         -1.2193471841       -1.2005698461        0.0027091279
 C         -1.9126587180        0.0051017597        0.0045448011
 C         -1.2107267843        1.2057276622        0.0014408253
 C          0.1816760115        1.1997480926       -0.0046306999
 H          2.7549630949       -0.9263177334       -0.1104367663
 H          2.7487476376        0.5738018038       -0.7361712888
 H          2.7287011010        0.3624811278        0.8836588689
 H          0.7080103408       -2.1419035140       -0.0025089307
 H         -1.7628590054       -2.1352775825        0.0067348860
 H         -2.9941455287        0.0090008675        0.0092576371
 H         -1.7471941887        2.1444903972        0.0039108029
 H          0.7262063000        2.1308213117       -0.0050417518
          15
        -19.38751577
 N          2.3420418250       -0.0005011300        0.0035148471
 C          0.9055712857       -0.0065239520       -0.0056324122
 C          0.1868372604       -1.2061117036       -0.0018295780
 C         -1.2056072879       -1.1998109456        0.0008478667
 C         -1.8973855834        0.0066102972        0.0017815836
 C         -1.1943111219        1.2064173556        0.0008388648
 C          0.1980081992        1.1988714387       -0.0018229681
 H          2.7692916083       -0.9329776696       -0.0796880116
 H          2.7594413859        0.5419805506       -0.7653822578
 H          2.7490452408        0.3949473068        0.8624014836
 H          0.7213900744       -2.1425048159       -0.0017699356
 H         -1.7500758911       -2.1336769020        0.0019430442
 H         -2.9786374568        0.0116839166        0.0032414845
 H         -1.7295592444        2.1455923699        0.0017676633
 H          0.7445944150        2.1284440003       -0.0020428947
