11
0.0
N           -1.20230   0.24300  -0.00000
C            0.04863  -0.57606  -0.00002
C            1.31238   0.26600  -0.00003
H           -1.23748   0.84131  -0.82783
H           -1.23844   0.84025   0.82867
H           -2.03277  -0.35348  -0.00088
H            0.03701  -1.23953  -0.87597
H            0.03687  -1.23909   0.87626
H            1.35347   0.91331   0.87719
H            1.35770   0.90737  -0.88138
H            2.21296  -0.35224   0.00456
