45
 xtb: 6.5.1 (fef0646)
N           -6.66841440014464        2.70256351961914       -1.60750735201810
C           -7.51709739024863        1.47667902610929       -1.61543400654499
C           -7.57413061522885        0.78394961085936       -0.25303881760794
C           -6.29048247583762        0.14199971113114        0.15304975604406
C           -6.16623225999133       -0.97342792798819        0.93618109205995
C           -4.83211740849590       -1.37152677836318        1.17025655446889
C           -3.89184315313910       -0.56047949255446        0.56786727061124
C           -2.47596292169562       -0.70635616178562        0.62119172562355
C           -1.77046030083230       -1.72125175417949        1.25010922114438
C           -0.37592159483433       -1.62105979864835        1.14408753915035
C            0.54451001212546       -2.61928913208731        1.75308247581449
C            0.03673972934316       -0.50030619208819        0.41517382049590
C            1.36086521612647       -0.08801172150923        0.10720022146271
C            1.68241494428434        1.07530698968137       -0.58181555383726
C            3.04870980597840        1.26911432719729       -0.77425620809240
C            3.84917799389307        0.26443544328707       -0.24814757892485
C            5.27366352495378        0.24091918676396       -0.33285215588757
C            6.15010096878195       -0.73054537329992        0.13355182895941
C            5.74314405865966       -1.97757588108771        0.83682652521734
C            7.50786386738411       -0.41412049173472       -0.12970053060327
C            7.68945602636294        0.76719262979450       -0.77832886679774
S            6.18628102018353        1.53764908467541       -1.05972187723507
S            2.83160791309110       -0.93107191622960        0.49328699372687
S           -1.35928518357236        0.39565321107726       -0.10425411396809
S           -4.72259792685396        0.68096033659087       -0.32864606578309
H           -6.61185445051520        3.15353773951594       -2.52582415444127
H           -5.71077774099715        2.47268911818605       -1.30037362629321
H           -7.02705370866326        3.41494663089444       -0.93222321520901
H           -7.15657734955713        0.78917260768268       -2.35854731969060
H           -8.53681094658210        1.77145459063927       -1.92138753617539
H           -8.36764496116213        0.03573947661932       -0.23527589280346
H           -7.84721905409037        1.51722535939582        0.53167308470131
H           -7.01944313579211       -1.53467432613277        1.28860926309972
H           -4.57278154621217       -2.26974211103714        1.71121021927900
H           -2.25360719637036       -2.53396220701058        1.76931308525499
H           -0.00746509207176       -3.38803306256791        2.29461638505219
H            1.23084207147042       -2.14246758605082        2.44492727625050
H            1.13532244002977       -3.12289096345340        0.97831042410575
H            0.92904424065779        1.74740958334161       -0.96274671517325
H            3.45722897695571        2.10665179406163       -1.31890642170837
H            5.09085053717819       -2.56522449029501        0.26322881926698
H            5.21461811267416       -1.70339913255175        1.80069925961515
H            6.61455792429829       -2.55511326829287        1.14957221978174
H            8.32551574167126       -1.03775566218956        0.20149239341663
H            8.63667436036547        1.17987866971283       -1.07422974007414
