  15

 N         -2.6205610106       -0.1329026247       -0.5570347572
 C         -1.7721401686        0.4931721928        0.4974529129
 C         -0.3193744814        0.3503443921        0.2292050022
 C          0.5879619892        1.3793814470        0.0037268354
 C          1.8977461654        0.9392604031       -0.2174598436
 C          2.0323264970       -0.4354550558       -0.1709483937
 S          0.5121770122       -1.1594697850        0.1502266589
 H         -3.6259519639       -0.0260439518       -0.3538308000
 H         -2.4240422353       -1.1411630438       -0.6383272634
 H         -2.4392703043        0.2943793158       -1.4769362234
 H         -2.0055080778        0.0413203970        1.4700436485
 H         -2.0287788877        1.5562479885        0.5874749992
 H          0.3079614643        2.4240324442        0.0094836719
 H          2.7274923524        1.6105654537       -0.4041163732
 H          2.9482057764       -0.9840541777       -0.3117614664
          15
        -20.48625001
 N         -2.6472749890       -0.1156442866       -0.5681334441
 C         -1.8047555293        0.3697293360        0.5628950013
 C         -0.3527603133        0.3216842872        0.2607431025
 C          0.4869706368        1.4088211410        0.0470824108
 C          1.8142629157        1.0526877125       -0.2167635014
 C          2.0284982385       -0.3127456421       -0.2160475842
 S          0.5611808227       -1.1347060920        0.1152417326
 H         -2.4867310373        0.4479094287       -1.4151632925
 H         -3.6530552043       -0.0688304139       -0.3450144145
 H         -2.4236247740       -1.0942118882       -0.8003139438
 H         -2.0071691848       -0.2352294262        1.4558686895
 H         -2.0940961258        1.3960599082        0.8210875431
 H          0.1465286954        2.4345464799        0.0886927699
 H          2.5994399379        1.7764632620       -0.4001774307
 H          2.9712363749       -0.8020509570       -0.3938730539
