  15

 N          3.3685200000       -0.8432600000       -0.8898400000
 C          2.4400500000       -0.1150200000        0.0039000000
 C          2.9358100000       -0.1100800000        1.4072600000
 C          3.2862800000        0.9674000000        2.1972100000
 C          3.7197700000        0.5658800000        3.4947900000
 C          3.6863700000       -0.8010500000        3.6535500000
 S          3.1260000000       -1.5943900000        2.2493700000
 H          3.0239400000       -0.8784000000       -1.8551800000
 H          3.4896200000       -1.8069400000       -0.5526100000
 H          4.2960200000       -0.4013100000       -0.8854600000
 H          1.4657500000       -0.6070600000       -0.0775500000
 H          2.3562300000        0.9000100000       -0.3972800000
 H          3.2325300000        2.0035400000        1.8795100000
 H          4.0359900000        1.2457700000        4.2789500000
 H          3.9578500000       -1.3701500000        4.5343200000
