21
0.709
N           -0.44126  -1.81279  -0.99487
C            0.57760  -1.98099   0.07530
C            0.97070  -0.65595   0.72090
C            1.65805   0.30763  -0.24618
C            2.08513   1.61692   0.41892
C            2.76455   2.57340  -0.54869
Cl          -3.05444   0.06113   0.32590
H           -0.77454  -2.71924  -1.36454
H           -0.06700  -1.27331  -1.79193
H           -1.26521  -1.29532  -0.63554
H            1.46707  -2.47195  -0.33827
H            0.18955  -2.66993   0.83697
H            1.62969  -0.83540   1.58064
H            0.07778  -0.17501   1.13912
H            0.99229   0.52919  -1.08906
H            2.53236  -0.18098  -0.69411
H            2.75232   1.39481   1.26262
H            1.20697   2.09685   0.87152
H            2.10204   2.83440  -1.37722
H            3.66099   2.12542  -0.98328
H            3.06564   3.50531  -0.06303
