30

N          0.90621        1.94373       -1.39680
C          2.36925        1.98255       -1.47932
C          2.97368        1.52625       -0.15394
C          4.50647        1.53464       -0.17060
C          5.07907        2.93432       -0.39133
C          6.60792        2.94274       -0.38397
C          7.12216        4.36135       -0.65018
C          8.64456        4.41192       -0.68003
C          9.13460        5.82807       -0.94601
Cl        -0.13815       -0.73958       -1.55657
H          0.42639        2.28006       -2.23566
H          0.48484        2.35051       -0.55985
H          0.58950        0.92803       -1.37117
H          2.62658        3.01840       -1.71235
H          2.66906        1.33878       -2.30930
H          2.63718        0.50724        0.07495
H          2.61369        2.16527        0.66104
H          4.86873        0.85390       -0.94824
H          4.86617        1.14307        0.78992
H          4.70315        3.61004        0.38653
H          4.74060        3.32946       -1.35396
H          6.98588        2.25894       -1.15485
H          6.97870        2.58312        0.58178
H          6.74456        5.03557        0.12624
H          6.72582        4.71881       -1.60788
H          9.02594        3.74561       -1.45985
H          9.05063        4.06369        0.27805
H          8.76708        6.19580       -1.90937
H         10.23089        5.85316       -0.96976
H          8.79910        6.51523       -0.16312
