 xtb: 6.5.1 (fef0646)
          01232320143D

 30 28  0     0  0            999 V2000
    0.7920    1.8329   -1.4003 N   0  0  0  0  0  0  0  0  0  0  0  0
    2.2290    2.0969   -1.4888 C   0  0  0  0  0  0  0  0  0  0  0  0
    2.9190    1.6286   -0.2104 C   0  0  0  0  0  0  0  0  0  0  0  0
    4.4436    1.6391   -0.3143 C   0  0  0  0  0  0  0  0  0  0  0  0
    5.0372    3.0380   -0.4712 C   0  0  0  0  0  0  0  0  0  0  0  0
    6.5638    3.0103   -0.4441 C   0  0  0  0  0  0  0  0  0  0  0  0
    7.1665    4.3975   -0.6522 C   0  0  0  0  0  0  0  0  0  0  0  0
    8.6927    4.3728   -0.6233 C   0  0  0  0  0  0  0  0  0  0  0  0
    9.2867    5.7559   -0.8597 C   0  0  0  0  0  0  0  0  0  0  0  0
    0.2952   -1.0366   -1.0949 Cl  0  0  0  0  0  0  0  0  0  0  0  0
    0.3079    2.1477   -2.2339 H   0  0  0  0  0  0  0  0  0  0  0  0
    0.3913    2.3000   -0.5933 H   0  0  0  0  0  0  0  0  0  0  0  0
    0.5397    0.3094   -1.2445 H   0  0  0  0  0  0  0  0  0  0  0  0
    2.4339    3.1616   -1.6615 H   0  0  0  0  0  0  0  0  0  0  0  0
    2.6132    1.5304   -2.3402 H   0  0  0  0  0  0  0  0  0  0  0  0
    2.5844    0.6115   -0.0030 H   0  0  0  0  0  0  0  0  0  0  0  0
    2.6067    2.2626    0.6230 H   0  0  0  0  0  0  0  0  0  0  0  0
    4.7494    1.0195   -1.1597 H   0  0  0  0  0  0  0  0  0  0  0  0
    4.8529    1.1852    0.5906 H   0  0  0  0  0  0  0  0  0  0  0  0
    4.6745    3.6782    0.3366 H   0  0  0  0  0  0  0  0  0  0  0  0
    4.7105    3.4754   -1.4164 H   0  0  0  0  0  0  0  0  0  0  0  0
    6.9246    2.3397   -1.2275 H   0  0  0  0  0  0  0  0  0  0  0  0
    6.9019    2.6089    0.5140 H   0  0  0  0  0  0  0  0  0  0  0  0
    6.8025    5.0709    0.1276 H   0  0  0  0  0  0  0  0  0  0  0  0
    6.8322    4.7952   -1.6136 H   0  0  0  0  0  0  0  0  0  0  0  0
    9.0560    3.6860   -1.3912 H   0  0  0  0  0  0  0  0  0  0  0  0
    9.0288    3.9934    0.3444 H   0  0  0  0  0  0  0  0  0  0  0  0
    8.9838    6.1398   -1.8316 H   0  0  0  0  0  0  0  0  0  0  0  0
   10.3731    5.7171   -0.8298 H   0  0  0  0  0  0  0  0  0  0  0  0
    8.9469    6.4527   -0.0965 H   0  0  0  0  0  0  0  0  0  0  0  0
  1  2  1  0  0  0  0
  2  3  1  0  0  0  0
  3  4  1  0  0  0  0
  4  5  1  0  0  0  0
  5  6  1  0  0  0  0
  6  7  1  0  0  0  0
  7  8  1  0  0  0  0
  8  9  1  0  0  0  0
  1 11  1  0  0  0  0
  1 12  1  0  0  0  0
 10 13  1  0  0  0  0
  2 14  1  0  0  0  0
  2 15  1  0  0  0  0
  3 16  1  0  0  0  0
  3 17  1  0  0  0  0
  4 18  1  0  0  0  0
  4 19  1  0  0  0  0
  5 20  1  0  0  0  0
  5 21  1  0  0  0  0
  6 22  1  0  0  0  0
  6 23  1  0  0  0  0
  7 24  1  0  0  0  0
  7 25  1  0  0  0  0
  8 26  1  0  0  0  0
  8 27  1  0  0  0  0
  9 28  1  0  0  0  0
  9 29  1  0  0  0  0
  9 30  1  0  0  0  0
M  END
