17
 xtb: 6.5.1 (fef0646)
N           -1.40390218064790       -1.65298892189390        0.32291369740951
C           -2.27325755438943       -0.70162953262709       -0.43265854015891
C           -2.25745039975818        0.72887886784229        0.12060671646432
C           -1.03970755787662        1.58933612575936       -0.28278003855680
C            0.24377390009876        1.34909432706939        0.50386126460161
Br           1.26437734761388       -0.18439058297086       -0.01618526423407
H           -0.40712110868310       -1.31440434303505        0.43950209461681
H           -1.40875995209181       -2.59054528763011        0.03579283076182
H           -1.75776603828029       -1.65968822359046        1.36726189529837
H           -3.23111266680899       -1.11598775903065       -0.50679246059256
H           -1.83246365574719       -0.72444082251277       -1.47733304293663
H           -2.42024897888779        0.72148010748410        1.15331222272410
H           -3.15076414946725        1.22404535135761       -0.34414191887133
H           -1.29628527464297        2.65737598724122       -0.10740061397223
H           -0.78758034561115        1.51575817455660       -1.32194792628931
H           -0.01470320634610        1.14103085305499        1.61647918916351
H            0.92777239668852        2.14626026677932        0.52678526007054
