29
 xtb: 6.5.1 (fef0646)
N            2.81103615528892       -0.97486868051476       -0.00750116749619
C            2.65838072392428        0.45922384158088        0.36178111611683
C            1.88926016179957        0.65140305235729        1.66437255829179
O            0.59002423583853        0.06766004229699        1.64080623778450
C           -0.37176621410505        0.73648806509352        0.89208082091906
C           -0.19673386279115        1.96556061232184        0.27876415838870
C           -1.20948356460640        2.55649285070038       -0.47363452846560
C           -2.41863919074636        1.94200391491570       -0.62811456082557
C           -2.66811238841516        0.69532280725426       -0.01703107303898
C           -3.90954269918021        0.03244983355420       -0.14427558603133
C           -4.12201058493769       -1.16850478319949        0.46549888768123
C           -3.11101940831144       -1.76272588674552        1.22855530244777
C           -1.90060308756415       -1.14733450845366        1.36713137295905
C           -1.64553493581336        0.09020835447830        0.75046516460239
Cl           4.32450925462599       -1.41582449458222       -2.77933254812990
H            3.26936106745024       -1.14259273503363       -0.82378587929231
H            1.83677781703191       -1.40112759854312        0.00730226186446
H            3.27921770509296       -1.48042802108301        0.81886617573540
H            2.14983221783504        0.97594701712200       -0.42726234289436
H            3.64911976046193        0.91785383990491        0.47141482405249
H            1.78070741884570        1.73370112053848        1.96414631232541
H            2.40562699184218        0.19926901407291        2.52473288333593
H            0.73283325362409        2.49024355586143        0.38585260737124
H           -1.03668339272682        3.51217927289967       -0.94360710303489
H           -3.19804669212502        2.40223157717345       -1.21533038621982
H           -4.68898946012579        0.48892545142773       -0.73259024521588
H           -5.07245471005111       -1.66818258767920        0.35755614737437
H           -3.29042905490779       -2.71339701470649        1.70386684006462
H           -1.12134521872767       -1.59627826440256        1.95677911538519
