 xtb: 6.5.1 (fef0646)
          01242317143D

 29 29  0     0  0            999 V2000
    2.7571   -0.9810    0.1088 N   0  0  0  0  0  0  0  0  0  0  0  0
    2.6507    0.4675    0.4159 C   0  0  0  0  0  0  0  0  0  0  0  0
    1.8696    0.6866    1.7046 C   0  0  0  0  0  0  0  0  0  0  0  0
    0.5782    0.0864    1.6664 O   0  0  0  0  0  0  0  0  0  0  0  0
   -0.3796    0.7447    0.9003 C   0  0  0  0  0  0  0  0  0  0  0  0
   -0.2025    1.9702    0.2814 C   0  0  0  0  0  0  0  0  0  0  0  0
   -1.2138    2.5576   -0.4756 C   0  0  0  0  0  0  0  0  0  0  0  0
   -2.4223    1.9418   -0.6294 C   0  0  0  0  0  0  0  0  0  0  0  0
   -2.6709    0.6954   -0.0176 C   0  0  0  0  0  0  0  0  0  0  0  0
   -3.9108    0.0302   -0.1474 C   0  0  0  0  0  0  0  0  0  0  0  0
   -4.1216   -1.1719    0.4606 C   0  0  0  0  0  0  0  0  0  0  0  0
   -3.1105   -1.7651    1.2243 C   0  0  0  0  0  0  0  0  0  0  0  0
   -1.9022   -1.1466    1.3671 C   0  0  0  0  0  0  0  0  0  0  0  0
   -1.6492    0.0928    0.7531 C   0  0  0  0  0  0  0  0  0  0  0  0
    4.4131   -1.4582   -2.9489 Cl  0  0  0  0  0  0  0  0  0  0  0  0
    3.2385   -1.1557   -0.7922 H   0  0  0  0  0  0  0  0  0  0  0  0
    1.8173   -1.3952    0.0579 H   0  0  0  0  0  0  0  0  0  0  0  0
    3.2714   -1.4771    0.8490 H   0  0  0  0  0  0  0  0  0  0  0  0
    2.1516    0.9748   -0.4161 H   0  0  0  0  0  0  0  0  0  0  0  0
    3.6493    0.9148    0.4856 H   0  0  0  0  0  0  0  0  0  0  0  0
    1.7702    1.7446    1.9704 H   0  0  0  0  0  0  0  0  0  0  0  0
    2.3978    0.2151    2.5410 H   0  0  0  0  0  0  0  0  0  0  0  0
    0.7307    2.4923    0.3866 H   0  0  0  0  0  0  0  0  0  0  0  0
   -1.0379    3.5121   -0.9449 H   0  0  0  0  0  0  0  0  0  0  0  0
   -3.1991    2.4018   -1.2160 H   0  0  0  0  0  0  0  0  0  0  0  0
   -4.6893    0.4879   -0.7338 H   0  0  0  0  0  0  0  0  0  0  0  0
   -5.0719   -1.6698    0.3553 H   0  0  0  0  0  0  0  0  0  0  0  0
   -3.2897   -2.7146    1.7017 H   0  0  0  0  0  0  0  0  0  0  0  0
   -1.1221   -1.5959    1.9573 H   0  0  0  0  0  0  0  0  0  0  0  0
  1  2  1  0  0  0  0
  2  3  1  0  0  0  0
  3  4  1  0  0  0  0
  4  5  1  0  0  0  0
  5  6  4  0  0  0  0
  6  7  4  0  0  0  0
  7  8  2  0  0  0  0
  8  9  4  0  0  0  0
  9 10  4  0  0  0  0
 10 11  2  0  0  0  0
 11 12  4  0  0  0  0
 12 13  2  0  0  0  0
  5 14  4  0  0  0  0
  9 14  4  0  0  0  0
 13 14  4  0  0  0  0
  1 16  1  0  0  0  0
  1 17  1  0  0  0  0
  1 18  1  0  0  0  0
  2 19  1  0  0  0  0
  2 20  1  0  0  0  0
  3 21  1  0  0  0  0
  3 22  1  0  0  0  0
  6 23  1  0  0  0  0
  7 24  1  0  0  0  0
  8 25  1  0  0  0  0
 10 26  1  0  0  0  0
 11 27  1  0  0  0  0
 12 28  1  0  0  0  0
 13 29  1  0  0  0  0
M  END
