 xtb: 6.5.1 (fef0646)
          01232313413D

 16 15  0     0  0            999 V2000
    1.2811   -0.4423    0.2052 N   0  0  0  0  0  0  0  0  0  0  0  0
    2.7100   -0.2100    0.0955 C   0  0  0  0  0  0  0  0  0  0  0  0
    3.6751   -1.1677    0.8294 C   0  0  0  0  0  0  0  0  0  0  0  0
    4.3743    0.0484    1.4572 C   0  0  0  0  0  0  0  0  0  0  0  0
    3.2422    0.9541    0.9462 C   0  0  0  0  0  0  0  0  0  0  0  0
   -0.1914    1.9606   -0.6332 Cl  0  0  0  0  0  0  0  0  0  0  0  0
    0.9883   -1.2372   -0.3521 H   0  0  0  0  0  0  0  0  0  0  0  0
    0.5032    0.8462   -0.2621 H   0  0  0  0  0  0  0  0  0  0  0  0
    1.0184   -0.6039    1.1723 H   0  0  0  0  0  0  0  0  0  0  0  0
    2.9481   -0.1022   -0.9638 H   0  0  0  0  0  0  0  0  0  0  0  0
    4.2911   -1.8045    0.1986 H   0  0  0  0  0  0  0  0  0  0  0  0
    3.1641   -1.7890    1.5639 H   0  0  0  0  0  0  0  0  0  0  0  0
    5.3337    0.2677    0.9953 H   0  0  0  0  0  0  0  0  0  0  0  0
    4.5031    0.0141    2.5364 H   0  0  0  0  0  0  0  0  0  0  0  0
    3.5419    1.8415    0.3968 H   0  0  0  0  0  0  0  0  0  0  0  0
    2.5391    1.2448    1.7231 H   0  0  0  0  0  0  0  0  0  0  0  0
  1  2  1  0  0  0  0
  2  3  1  0  0  0  0
  3  4  1  0  0  0  0
  2  5  1  0  0  0  0
  4  5  1  0  0  0  0
  1  7  1  0  0  0  0
  6  8  1  0  0  0  0
  1  9  1  0  0  0  0
  2 10  1  0  0  0  0
  3 11  1  0  0  0  0
  3 12  1  0  0  0  0
  4 13  1  0  0  0  0
  4 14  1  0  0  0  0
  5 15  1  0  0  0  0
  5 16  1  0  0  0  0
M  END
