17
0.28
N           -1.73534  -1.57516  -0.36086
C           -2.31926  -0.74688   0.73173
C           -2.67794   0.67082   0.29096
C           -1.56105   1.43020  -0.44396
C           -0.24921   1.54271   0.31937
I            0.99036  -0.11633  -0.05199
H           -1.60846  -2.55764  -0.06937
H           -0.78720  -1.20671  -0.64578
H           -2.34371  -1.57849  -1.19394
H           -1.60844  -0.71146   1.56619
H           -3.20839  -1.25319   1.13089
H           -2.99415   1.25419   1.16509
H           -3.56397   0.62601  -0.35521
H           -1.92490   2.43927  -0.69392
H           -1.36824   0.95548  -1.41569
H           -0.40465   1.66116   1.39291
H            0.35543   2.38673  -0.02241
