21
 xtb: 6.5.1 (fef0646)
N           -0.70962344126011        0.96873771063832        1.42114469357367
C           -0.66174886321007        2.17856499065919        0.56137816957010
C           -0.33649849013300        1.88326001540594       -0.90216927823736
C            1.03863861886164        1.23092532615251       -1.11502044371999
C            1.05827455491609       -0.30162022354061       -0.92080411075193
C            2.03029583324735       -0.72601073935448        0.14152184531558
O            3.15498201424946       -1.34981171409256       -0.26368944167607
O            1.78280844414258       -0.47804998840501        1.30495409638898
Cl          -3.14181095805983       -1.38255122077128       -0.27677640714566
H            0.12311377983764        0.41815796610006        1.39955922361107
H           -1.48441550574272        0.26092664158773        0.97900242965004
H           -1.06236453233820        1.11234744354068        2.35076706813635
H            0.05508067268389        2.81224844158079        0.99258466480758
H           -1.64553392342166        2.69069585737983        0.61451200520431
H           -0.38875702220158        2.82205461937878       -1.46649658285081
H           -1.11072113725135        1.24057434578049       -1.36537513289951
H            1.75084129993427        1.68621970648235       -0.41618075209328
H            1.42512946278887        1.47635779447223       -2.10831752061298
H            1.31926171450674       -0.81606284674768       -1.85430392295821
H            0.06376436665670       -0.67576895685726       -0.65567484290057
H            3.68418730805787       -1.54772525598579        0.53183297429401
