  28

 N          4.0176375906       -1.1907723735       -0.7603231892
 C          3.9334210068       -0.2765650497        0.4090713240
 C          2.7112323842        0.6190598768        0.3038897712
 O          1.5266650818       -0.1631484729        0.2432007270
 C          0.3787723533        0.5359613002        0.1130033951
 C          0.2814468382        1.9438483058        0.0100553957
 C         -0.9352227232        2.5667627038       -0.1325114313
 C         -2.1089771589        1.8429682062       -0.1789671989
 C         -2.0930700311        0.4394121761       -0.0754744942
 C         -3.2728794186       -0.3286676512       -0.1126385793
 C         -3.2201846764       -1.6921981878       -0.0011550793
 C         -1.9996114375       -2.3385472571        0.1529245360
 C         -0.8329130780       -1.6139270018        0.1913983341
 C         -0.8510460044       -0.2263041577        0.0754371195
 H          4.7848887198       -1.8661696918       -0.6666778333
 H          4.1556879205       -0.6597337166       -1.6268212757
 H          3.1349046721       -1.7057873197       -0.8492502167
 H          4.8520665683        0.3160092229        0.4910819796
 H          3.8612016591       -0.8720192263        1.3262113350
 H          2.7604606729        1.2207179166       -0.6101866861
 H          2.6302107800        1.2898678303        1.1675722556
 H          1.1723060263        2.5437061260        0.0433060616
 H         -0.9748132139        3.6415200488       -0.2095890908
 H         -3.0518756809        2.3496598895       -0.2919821317
 H         -4.2201151666        0.1696838808       -0.2290093451
 H         -4.1304068969       -2.2692982026       -0.0309091295
 H         -1.9693486076       -3.4121810489        0.2433274367
 H          0.1160589349       -2.1056464360        0.3195799409
          28
        -39.48423124
 N          4.0295107592        1.1939841820        0.7759491297
 C          3.9399739750        0.3080920419       -0.4146268379
 C          2.7271611584       -0.6015134312       -0.3183951403
 O          1.5350388936        0.1672936390       -0.2386808612
 C          0.3954222686       -0.5457007823       -0.1113092964
 C          0.3127048468       -1.9552976128       -0.0169622742
 C         -0.8964441519       -2.5914355623        0.1301888916
 C         -2.0773411476       -1.8797917607        0.1882635387
 C         -2.0763403708       -0.4757113436        0.0903578252
 C         -3.2638810521        0.2799286253        0.1358323296
 C         -3.2261051969        1.6441736194        0.0262116822
 C         -2.0133768890        2.3035238405       -0.1339471750
 C         -0.8393849355        1.5911829131       -0.1798596021
 C         -0.8422550371        0.2034552236       -0.0656529866
 H          3.1465037235        1.7041758516        0.8841370226
 H          4.7945369887        1.8732256698        0.6923319954
 H          4.1756204021        0.6424765152        1.6285053284
 H          4.8626205195       -0.2743880292       -0.5199727668
 H          3.8523974011        0.9246826747       -1.3164948488
 H          2.7874958900       -1.2185562563        0.5846456094
 H          2.6480065091       -1.2579132713       -1.1933911755
 H          1.2094838845       -2.5457725102       -0.0591294694
 H         -0.9242266249       -3.6668913281        0.2022283858
 H         -3.0143619087       -2.3964135680        0.3047780870
 H         -4.2051563864       -0.2286188948        0.2562541302
 H         -4.1420128121        2.2118572966        0.0617792022
 H         -1.9947624415        3.3774926035       -0.2235329479
 H          0.1037926365        2.0925286471       -0.3135272545
