  28

 N          3.8047646444        0.4751135852        1.5084177378
 C          2.7549631251        0.5667223590        0.4684677118
 C          3.2454095246        1.4703904189       -0.6572619683
 O          4.4354847715        0.8614388761       -1.1527661087
 C          5.0773829919        1.4202275354       -2.2156585253
 C          4.7073688715        2.5979368347       -2.8148638313
 C          5.4562179879        3.1117097264       -3.8849935152
 C          6.5622752212        2.4597301254       -4.3469534321
 C          6.9655869388        1.2404438816       -3.7611528178
 C          8.0965473310        0.5322725900       -4.2178317725
 C          8.4631146989       -0.6536904114       -3.6444591967
 C          7.7098644135       -1.1906406388       -2.5904312601
 C          6.6104308780       -0.5266560301       -2.1213136408
 C          6.2153058257        0.7024204195       -2.6860511885
 H          3.5797388832       -0.2453263160        2.2036078404
 H          3.9286611269        1.3756016882        1.9868177628
 H          4.6899624685        0.2346764817        1.0419047109
 H          1.8337929776        0.9665002020        0.8889557661
 H          2.5677244541       -0.4275942812        0.0627898128
 H          3.4654182086        2.4799637781       -0.2914908707
 H          2.4886085684        1.5364234880       -1.4446643664
 H          3.8444407722        3.1535077456       -2.4863608764
 H          5.1432779120        4.0409853790       -4.3371823464
 H          7.1406240794        2.8611780810       -5.1659189463
 H          8.6683261043        0.9467132590       -5.0360639421
 H          9.3310922796       -1.1864446913       -4.0044771520
 H          8.0064904878       -2.1337911014       -2.1570907963
 H          6.0212544534       -0.9467629846       -1.3233147889
