  28

 N          3.7988100000        0.0985400000        1.5680900000
 C          2.7620100000        0.5834700000        0.6133900000
 C          3.3516500000        1.6792300000       -0.2720000000
 O          4.4883300000        1.1319500000       -0.9464500000
 C          5.1842400000        1.9822500000       -1.7811100000
 C          4.8144100000        3.3131200000       -2.0163700000
 C          5.5836800000        4.1230800000       -2.8479200000
 C          6.7291200000        3.6160500000       -3.4514900000
 C          7.1199500000        2.2890100000       -3.2432800000
 C          8.2791900000        1.7911700000       -3.8613400000
 C          8.6775200000        0.4687700000       -3.6741200000
 C          7.9189300000       -0.3748500000       -2.8749000000
 C          6.7638100000        0.1066900000       -2.2510300000
 C          6.3412600000        1.4463100000       -2.4096500000
 H          3.4587000000       -0.6841900000        2.1407400000
 H          4.1252300000        0.8411000000        2.1998500000
 H          4.6226400000       -0.2277800000        1.0386900000
 H          1.9172300000        0.9456900000        1.2048500000
 H          2.4658200000       -0.2892900000        0.0239200000
 H          3.6579000000        2.5242000000        0.3573200000
 H          2.5924900000        1.9969000000       -0.9950200000
 H          3.9314900000        3.7643900000       -1.5768600000
 H          5.2919900000        5.1549500000       -3.0294600000
 H          7.3166900000        4.2695800000       -4.0952200000
 H          8.8838500000        2.4332500000       -4.4992600000
 H          9.5787500000        0.1010100000       -4.1610500000
 H          8.2237000000       -1.4098500000       -2.7414700000
 H          6.1860100000       -0.5851200000       -1.6460500000
