40
 xtb: 6.5.1 (fef0646)
N           -7.53932633754858        1.21437670360079        0.83821107238733
C           -7.66800147130817        0.74064468294427       -0.56852600293799
C           -7.14704695643041       -0.68186113841503       -0.75188970243638
C           -5.69285740712296       -0.81007240598709       -0.46036397140810
C           -5.14179962885800       -1.59310181640656        0.50348555795187
C           -3.72631686387269       -1.51751655913484        0.56453743582040
C           -3.17805404062281       -0.66960206435298       -0.35537803438290
C           -1.77405027355264       -0.39085094540396       -0.50473521204962
C           -1.22265538074288        0.44004771704668       -1.44278279408157
C            0.18299475218570        0.53867764802612       -1.36706979752188
C            0.74092187742379       -0.21411823248557       -0.36777592197077
C            2.14262902728644       -0.29243444732465       -0.06336509781219
C            2.69855191784888       -1.03673641027315        0.94373904809306
C            4.10345976338944       -0.93212916937295        1.02609372668824
C            4.65665904380689       -0.10576984532144        0.08463836759487
C            6.06053660946381        0.17990417958380       -0.05685936983178
C            6.61325297770407        1.00936370046642       -0.99236258597483
C            8.02618621151001        1.11330982549109       -0.90134771609144
C            8.55589555848372        0.36921354873384        0.09691747324285
S            7.31946652685689       -0.47291076917046        0.96616844402205
S            3.40034899262567        0.54461817528485       -0.94055845910242
S           -0.51617086828697       -1.06202511928457        0.49579184383651
S           -4.44617877312367        0.04793374510455       -1.32519887620835
Cl          -4.07670732738410        1.62422286916465        2.03283306809154
H           -7.88572206292135        2.17703929303766        0.95907581200105
H           -6.52019267884258        1.23927613033744        1.11422969397264
H           -8.00483197650668        0.60273341001746        1.49258755132111
H           -7.11993495540404        1.41373725825609       -1.23917968121705
H           -8.71445475627531        0.80362730068224       -0.86284670458386
H           -7.33095634419605       -1.03328757322129       -1.76834257329787
H           -7.70348486638961       -1.36309666742123       -0.09323415582104
H           -5.72911232818521       -2.19104047276710        1.18841017000454
H           -3.13024491827437       -2.04691941198094        1.29982225205314
H           -1.81864914622195        0.98035857807421       -2.15577017304252
H            0.77141114447007        1.16166319971810       -2.01821364213427
H            2.11434503678610       -1.67785910074116        1.58515175780060
H            4.70289689551953       -1.48483806902697        1.73502858452796
H            6.01903801917576        1.56175549309599       -1.70437706460115
H            8.61266402128950        1.75484134704420       -1.54511183562029
H            9.60148413717810        0.30255535939929        0.33234623219284
