 xtb: 6.5.1 (fef0646)
          01242317053D

 40 42  0     0  0            999 V2000
   -7.5015    1.2263    0.8365 N   0  0  0  0  0  0  0  0  0  0  0  0
   -7.6580    0.7401   -0.5632 C   0  0  0  0  0  0  0  0  0  0  0  0
   -7.1432   -0.6850   -0.7437 C   0  0  0  0  0  0  0  0  0  0  0  0
   -5.6896   -0.8133   -0.4521 C   0  0  0  0  0  0  0  0  0  0  0  0
   -5.1399   -1.5781    0.5265 C   0  0  0  0  0  0  0  0  0  0  0  0
   -3.7245   -1.5018    0.5873 C   0  0  0  0  0  0  0  0  0  0  0  0
   -3.1758   -0.6702   -0.3469 C   0  0  0  0  0  0  0  0  0  0  0  0
   -1.7721   -0.3921   -0.4983 C   0  0  0  0  0  0  0  0  0  0  0  0
   -1.2228    0.4474   -1.4297 C   0  0  0  0  0  0  0  0  0  0  0  0
    0.1829    0.5468   -1.3547 C   0  0  0  0  0  0  0  0  0  0  0  0
    0.7429   -0.2151   -0.3636 C   0  0  0  0  0  0  0  0  0  0  0  0
    2.1453   -0.2982   -0.0645 C   0  0  0  0  0  0  0  0  0  0  0  0
    2.7051   -1.0658    0.9223 C   0  0  0  0  0  0  0  0  0  0  0  0
    4.1101   -0.9607    1.0033 C   0  0  0  0  0  0  0  0  0  0  0  0
    4.6591   -0.1104    0.0815 C   0  0  0  0  0  0  0  0  0  0  0  0
    6.0618    0.1826   -0.0557 C   0  0  0  0  0  0  0  0  0  0  0  0
    6.6105    1.0332   -0.9739 C   0  0  0  0  0  0  0  0  0  0  0  0
    8.0236    1.1361   -0.8857 C   0  0  0  0  0  0  0  0  0  0  0  0
    8.5575    0.3701    0.0931 C   0  0  0  0  0  0  0  0  0  0  0  0
    7.3278   -0.5024    0.9364 S   0  0  0  0  0  0  0  0  0  0  0  0
    3.3979    0.5738   -0.9123 S   0  0  0  0  0  0  0  0  0  0  0  0
   -0.5099   -1.0781    0.4929 S   0  0  0  0  0  0  0  0  0  0  0  0
   -4.4411    0.0186   -1.3331 S   0  0  0  0  0  0  0  0  0  0  0  0
   -4.1487    1.6448    1.9850 Cl  0  0  0  0  0  0  0  0  0  0  0  0
   -7.8818    2.1776    0.9592 H   0  0  0  0  0  0  0  0  0  0  0  0
   -6.5073    1.2514    1.1090 H   0  0  0  0  0  0  0  0  0  0  0  0
   -7.9857    0.6038    1.4966 H   0  0  0  0  0  0  0  0  0  0  0  0
   -7.1200    1.4117   -1.2419 H   0  0  0  0  0  0  0  0  0  0  0  0
   -8.7129    0.8033   -0.8564 H   0  0  0  0  0  0  0  0  0  0  0  0
   -7.3304   -1.0351   -1.7655 H   0  0  0  0  0  0  0  0  0  0  0  0
   -7.7026   -1.3628   -0.0898 H   0  0  0  0  0  0  0  0  0  0  0  0
   -5.7288   -2.1831    1.1981 H   0  0  0  0  0  0  0  0  0  0  0  0
   -3.1298   -2.0388    1.3092 H   0  0  0  0  0  0  0  0  0  0  0  0
   -1.8191    0.9841   -2.1504 H   0  0  0  0  0  0  0  0  0  0  0  0
    0.7710    1.1657   -2.0133 H   0  0  0  0  0  0  0  0  0  0  0  0
    2.1171   -1.6910    1.5751 H   0  0  0  0  0  0  0  0  0  0  0  0
    4.7056   -1.4977    1.7243 H   0  0  0  0  0  0  0  0  0  0  0  0
    6.0174    1.5729   -1.6952 H   0  0  0  0  0  0  0  0  0  0  0  0
    8.6112    1.7654   -1.5375 H   0  0  0  0  0  0  0  0  0  0  0  0
    9.6023    0.3008    0.3291 H   0  0  0  0  0  0  0  0  0  0  0  0
  1  2  1  0  0  0  0
  2  3  1  0  0  0  0
  3  4  1  0  0  0  0
  4  5  2  0  0  0  0
  5  6  4  0  0  0  0
  6  7  2  0  0  0  0
  7  8  1  0  0  0  0
  8  9  4  0  0  0  0
  9 10  4  0  0  0  0
 10 11  4  0  0  0  0
 11 12  1  0  0  0  0
 12 13  4  0  0  0  0
 13 14  4  0  0  0  0
 14 15  2  0  0  0  0
 15 16  1  0  0  0  0
 16 17  2  0  0  0  0
 17 18  4  0  0  0  0
 18 19  2  0  0  0  0
 16 20  1  0  0  0  0
 19 20  1  0  0  0  0
 12 21  1  0  0  0  0
 15 21  1  0  0  0  0
  8 22  1  0  0  0  0
 11 22  1  0  0  0  0
  4 23  1  0  0  0  0
  7 23  1  0  0  0  0
  1 25  1  0  0  0  0
  1 26  1  0  0  0  0
  1 27  1  0  0  0  0
  2 28  1  0  0  0  0
  2 29  1  0  0  0  0
  3 30  1  0  0  0  0
  3 31  1  0  0  0  0
  5 32  1  0  0  0  0
  6 33  1  0  0  0  0
  9 34  1  0  0  0  0
 10 35  1  0  0  0  0
 13 36  1  0  0  0  0
 14 37  1  0  0  0  0
 17 38  1  0  0  0  0
 18 39  1  0  0  0  0
 19 40  1  0  0  0  0
M  END
