16

N          1.25962       -0.26574       -0.37806
C          2.68438        0.01477       -0.23979
C          3.06333        1.24231       -0.99078
C          3.07999        2.54933       -0.54394
C          3.44991        3.46616       -1.57053
C          3.70500        2.82993       -2.76398
S          3.50939        1.13646       -2.64277
Cl        -0.42281        0.85947        1.62929
H          0.94955       -1.12149        0.09074
H          0.87711       -0.20271       -1.31755
H          0.71247        0.43453        0.19855
H          3.21985       -0.86836       -0.60474
H          2.89739        0.11790        0.82916
H          2.81852        2.84346        0.46851
H          3.51399        4.54032       -1.44046
H          3.99581        3.28094       -3.70416
