29
 xtb: 6.5.1 (fef0646)
N            3.20039930123582       -1.77193249389345       -0.10191118427579
C            3.19888255306915       -0.85061715437652        1.06794323763698
C            2.10446741584284        0.19685083633059        0.91686040800580
O            0.81480640815752       -0.40020071350556        0.86647199322048
C           -0.23539716593538        0.48027691343982        0.62820023855010
C           -0.09036332001313        1.84187130019047        0.42182422863046
C           -1.18780501344928        2.66115001427090        0.16632792045620
C           -2.45065012147328        2.14523726397655        0.11515155281420
C           -2.66845550528189        0.76793901253366        0.32937697704452
C           -3.96161714016620        0.19940627696511        0.29604159969481
C           -4.14053982602758       -1.13415657913737        0.51705186881728
C           -3.04294373342768       -1.96073906274435        0.78085885198212
C           -1.78149987782912       -1.44063043559302        0.81615465068402
C           -1.55945106447380       -0.07059896431674        0.59084860923305
Cl           3.61490894128024       -0.02803334005680       -2.72854004946453
H            3.36306712227392       -1.32026359656398       -0.90672186729703
H            2.26446114611728       -2.26387904135846       -0.09760748785769
H            3.89849391662594       -2.55815499993463        0.08691883084071
H            4.17424051259138       -0.39077330724187        1.21304534275965
H            3.01760119348906       -1.40350868144599        2.05692927043957
H            2.26480747864584        0.72235904456012       -0.00645361672176
H            2.11307202501844        0.91837179770819        1.75053524532046
H            0.89500261707996        2.27409984221898        0.44973680071598
H           -1.02398181846114        3.70894309052067       -0.01064776373532
H           -3.28549029283933        2.78355353994968       -0.09571917371087
H           -4.80358876229185        0.84050872935359        0.08826925498139
H           -5.13598972862281       -1.55060449205590        0.48890674280232
H           -3.20583895125588       -3.01045661669105        0.96294658906524
H           -0.94073830249062       -2.07337845603663        1.03398330891029
