  34

 N          2.7496000000       -2.0476100000        1.8918500000
 C          2.3307500000       -2.3155700000        0.4942200000
 C          2.9591900000       -1.2986500000       -0.4596700000
 C          4.4717400000       -1.3448000000       -0.4762400000
 C          5.1284600000       -2.5218900000       -0.8539800000
 C          6.5260200000       -2.5844700000       -0.8946400000
 C          5.2466000000       -0.2296100000       -0.1306700000
 C          6.6409900000       -0.2941100000       -0.1924500000
 C          7.3028300000       -1.4657500000       -0.5661400000
 N          8.7092700000       -1.4361700000       -0.6055900000
 N          9.2254600000       -2.5423900000       -0.3447300000
 C         10.6329700000       -2.4636200000       -0.2469200000
 C         11.3173000000       -1.3231100000        0.2047400000
 C         12.7070600000       -1.3302700000        0.3520400000
 C         13.4305700000       -2.4831000000        0.0546300000
 C         12.7691300000       -3.6226600000       -0.3936400000
 C         11.3796200000       -3.6093700000       -0.5444400000
 Cl         0.3880100000       -0.3531600000        2.5267300000
 H          2.2420500000       -2.6465300000        2.5520800000
 H          2.3328700000       -1.1144100000        2.1557600000
 H          3.7501000000       -2.0427500000        2.0706600000
 H          1.2447300000       -2.2582900000        0.4654000000
 H          2.6210100000       -3.3519600000        0.2711100000
 H          2.6256100000       -0.2922500000       -0.1928400000
 H          2.5937100000       -1.4831800000       -1.4727700000
 H          4.5625700000       -3.4132800000       -1.1203700000
 H          7.0027400000       -3.5161100000       -1.1871200000
 H          4.7860800000        0.7042600000        0.1805900000
 H          7.2291300000        0.5842900000        0.0717600000
 H         10.7669900000       -0.4203800000        0.4568100000
 H         13.2198400000       -0.4399200000        0.7096800000
 H         14.5099200000       -2.4925500000        0.1824800000
 H         13.3326300000       -4.5241800000       -0.6214700000
 H         10.8720300000       -4.5061600000       -0.8884700000
