19
 xtb: 6.5.1 (fef0646)
N           -0.29189989890981       -0.69123814699105        0.99434477678931
C            0.88284727061254       -0.34888713289725        0.14018567731718
C            0.60222045804733        0.92791108499614       -0.69371349778639
C            1.53020097448943        2.03069485636714       -0.15058624016747
C            2.71345683758917        1.29808381299662        0.50458549305494
C            2.16045831916919       -0.06241641333038        0.97556124957079
Cl          -2.88590407587933       -1.18340609581017       -0.74464661936695
H           -1.09536357750707       -0.86107926913828        0.51104974223397
H           -0.42413709128861        0.11190499277459        1.69629375545780
H           -0.03092246223497       -1.50968689615561        1.63356111232403
H            1.08914575353289       -1.20203601665039       -0.51317309954438
H           -0.44306405950651        1.19246343992702       -0.59643417832168
H            0.80696994830610        0.73604801034765       -1.74362122663424
H            1.00814852822304        2.64176241918084        0.59927844711798
H            1.84896878268794        2.72220960621933       -0.94265751505936
H            3.16054135589855        1.89702272588621        1.32759738941721
H            3.53737116260173        1.18454122005469       -0.23428038336877
H            1.95856934287734       -0.02369722303194        2.03934231966311
H            2.95217744508975       -0.84532517493074        0.84918809376591
