16

N          1.28143        0.09583        0.14269
C          2.73990        0.03299        0.07804
C          3.28310        1.45291       -0.08127
C          4.77991        1.50055       -0.13028
C          5.53015        2.18951        0.74251
Cl        -1.05570       -1.40532       -0.26030
H          0.79178       -0.84030        0.17877
H          0.80331        0.44811       -0.69920
H          0.86352        0.57753        0.94412
H          3.00269       -0.60289       -0.77244
H          3.08582       -0.43627        1.00404
H          2.90885        2.07812        0.73978
H          2.89388        1.89226       -1.00964
H          5.27738        0.97283       -0.94392
H          5.09220        2.75625        1.55998
H          6.61175        2.21751        0.64791
