  26

 N         -2.1913985517       -0.8855531387        1.4532445163
 C         -1.9780453418       -1.9774950501        0.4601606090
 C         -1.3213973950       -1.4683416006       -0.8210767796
 C         -0.0174070702       -0.7714895386       -0.5704062693
 C          1.1574429814       -1.4937094471       -0.4219264558
 C          2.3514386655       -0.8589592030       -0.1605577771
 C          2.4126316077        0.5306999667       -0.0332771907
 O          3.5791001447        1.2568150010        0.2296431447
 C          4.7482443061        0.4756800530        0.3528591985
 C          1.2219214340        1.2478161188       -0.1754421686
 C          0.0322971123        0.6083921733       -0.4344160300
 Cl        -3.3101691959        1.9228178665       -0.3732180737
 H         -2.7434635703       -1.1957841734        2.2649458760
 H         -2.6797336521       -0.0889330366        1.0101562655
 H         -1.2909762108       -0.5279354183        1.8010441875
 H         -2.9370217221       -2.4564633294        0.2280835878
 H         -1.3560010053       -2.7599378618        0.9103210490
 H         -2.0003898232       -0.7757696428       -1.3301566036
 H         -1.1607547992       -2.2919292628       -1.5260253044
 H          1.1255655534       -2.5664853092       -0.5121211569
 H          3.2459884241       -1.4449646838       -0.0506488319
 H          5.5932090484        1.1385040853        0.5427271235
 H          4.9331201151       -0.0713802870       -0.5729993790
 H          4.6497289606       -0.2160574256        1.1909451449
 H          1.2570809764        2.3184428764       -0.0745808591
 H         -0.8794003028        1.1756017980       -0.5237839641
          26
        -37.97355030
 N         -2.2964057402       -0.9502049964        1.4869715581
 C         -2.2147502148       -2.0362626575        0.4690266550
 C         -1.5219074713       -1.5736630685       -0.8106874095
 C         -0.1474754837       -1.0264299147       -0.5646266640
 C          0.9514542340       -1.8689669471       -0.4898623750
 C          2.2059679558       -1.3659514371       -0.2299887592
 C          2.4104755397        0.0008215433       -0.0272188649
 O          3.7160239181        0.4299707783        0.2326317822
 C          3.8492430586        1.8157931106        0.4622696907
 C          1.2962148143        0.8410451538       -0.0964601870
 C          0.0446285876        0.3322174309       -0.3573701888
 Cl        -3.1197982319        2.0067979063       -0.2467794802
 H         -2.8714473790       -1.2141522486        2.2989284902
 H         -2.6984043277       -0.0948507184        1.0678783251
 H         -1.3585912157       -0.7018124245        1.8301293154
 H         -3.2225910061       -2.4040338260        0.2412194470
 H         -1.6765646706       -2.8911112724        0.8949015055
 H         -2.1280241807       -0.8016100397       -1.2967930977
 H         -1.4604790443       -2.3944528304       -1.5341765274
 H          0.8125054705       -2.9267964658       -0.6361896232
 H          3.0577904908       -2.0209217233       -0.1757862191
 H          3.5409246218        2.3735757355       -0.4226628627
 H          4.8974181692        2.0369606586        0.6696221399
 H          3.2511898018        2.1117340420        1.3257275648
 H          1.4137854618        1.8986761835        0.0569615819
 H         -0.8081369381        0.9899145635       -0.3941218001
          26
        -37.97365024
 N         -2.3037345499       -0.9644422414        1.4757499909
 C         -2.2145771931       -2.0398582052        0.4470474178
 C         -1.5194610093       -1.5607896487       -0.8253119658
 C         -0.1451953897       -1.0183384094       -0.5687227559
 C          0.9487103937       -1.8659560800       -0.4793601888
 C          2.2033406674       -1.3681104473       -0.2103072228
 C          2.4131238911       -0.0012221854       -0.0138835688
 O          3.7187159108        0.4231848439        0.2535103169
 C          3.8656690797        1.8158842087        0.4278309290
 C          1.3035748858        0.8440255664       -0.0964449140
 C          0.0515133328        0.3402264724       -0.3650716681
 Cl        -3.1307233134        2.0063424566       -0.2318366853
 H         -2.8772433190       -1.2410839413        2.2846668422
 H         -2.7109444200       -0.1072731191        1.0652745965
 H         -1.3674755769       -0.7129519612        1.8213467738
 H         -3.2201048312       -2.4093003753        0.2119482771
 H         -1.6743167443       -2.8970949099        0.8654197998
 H         -2.1244854611       -0.7820391310       -1.3019864966
 H         -1.4567101331       -2.3714988718       -1.5600397729
 H          0.8056062443       -2.9238921279       -0.6208267325
 H          3.0507325141       -2.0276467688       -0.1436929800
 H          3.5592152331        2.3412663184       -0.4774290959
 H          4.9168189351        2.0349267171        0.6222662092
 H          3.2736631850        2.1516023029        1.2808036269
 H          1.4248335488        1.9015768908        0.0546281299
 H         -0.7982483487        1.0012924016       -0.4094340869
