  26

 N          2.6459670357       -0.6108443977        2.6455195105
 C          2.2938151200       -1.7840487822        1.8219423291
 C          2.8419178147       -1.5951696776        0.4081126324
 C          4.3455222459       -1.5604033632        0.4060824298
 C          5.0870098673       -2.7293289473        0.3250551311
 C          6.4715848597       -2.7094515690        0.3537960157
 C          7.1420357435       -1.4971611322        0.4665108440
 O          8.5018252737       -1.3534617458        0.5060112302
 C          9.3048401353       -2.5150128168        0.4380491272
 C          6.4041162201       -0.3156043689        0.5475062744
 C          5.0254134911       -0.3504060369        0.5200413618
 Cl         1.7530794455        2.0018677867        1.3231498898
 H          2.2619576001       -0.6750874599        3.5900780051
 H          2.2789913168        0.2686669027        2.1990448720
 H          3.6638622548       -0.5049417110        2.6851338941
 H          1.2092162359       -1.8706406910        1.7806428807
 H          2.7179694318       -2.6824993813        2.2720760256
 H          2.4520757073       -0.6566745032        0.0122995579
 H          2.4896969585       -2.4112092581       -0.2210420961
 H          4.5808220287       -3.6782047856        0.2300649945
 H          7.0138497249       -3.6382185706        0.2809340622
 H         10.3311995778       -2.1593272969        0.4963040839
 H          9.1548101849       -3.0455574476       -0.5062106037
 H          9.1012217639       -3.1851986489        1.2775429772
 H          6.9385815022        0.6183528829        0.6268806995
 H          4.4672984600        0.5742350192        0.5690138711
