29
 xtb: 6.5.1 (fef0646)
N           -2.52726294642331        2.22939511379983       -1.24058962445842
C           -2.53041781944854        2.45767808683937        0.23185793251579
C           -1.79793551362497        1.32358954881651        0.93037655464063
O           -0.46672615713732        1.20664558977576        0.44569228581267
C            0.22323562884131        0.08093262902935        0.87688913942974
C           -0.26672662440648       -0.85371564986355        1.77623880425013
C            0.48214524183529       -1.96738957876531        2.14469240638458
C            1.73449362556725       -2.17147213881531        1.63455229779021
C            2.29369426574693       -1.25107680087675        0.72524071660374
C            3.58583642310989       -1.42210793291794        0.18161324659315
C            4.09855014990497       -0.50914597964720       -0.69575027854744
C            3.35025425322068        0.61037416950098       -1.06908549664897
C            2.09535411463418        0.80147449723073       -0.56073663570267
C            1.53799047362714       -0.11797225627312        0.34406594841335
Cl          -3.73810859980151       -0.57137503068193       -1.97792905227183
H           -2.91673765283461        1.43429937052839       -1.50403921702746
H           -1.49174108440967        2.29473938797659       -1.52948616179810
H           -2.94370421319748        3.10722930609289       -1.71102592233879
H           -3.55490324849219        2.55534809185627        0.60779458619828
H           -2.03135769828178        3.42539467754177        0.54719559145291
H           -2.31589368292829        0.38469273104543        0.68984899949856
H           -1.77065127868422        1.43418457128613        2.01536809054761
H           -1.24804641454574       -0.72092361922382        2.19753019479205
H            0.06686605415130       -2.67549287507771        2.84312959427945
H            2.30954795110904       -3.03128570567377        1.92983220106556
H            4.16353303593949       -2.28285796343629        0.47297718146971
H            5.08638968926045       -0.65230420710782       -1.10508786398359
H            3.76410937918323        1.32100262412326       -1.76751998295612
H            1.51060353729430        1.66013822187243       -0.84643495470088
