21

N          2.89197        0.30855        1.34796
C          2.32416        0.03039        0.00094
C          0.80823        0.19315        0.08181
C          2.80850       -1.31887       -0.47491
C          4.02360       -1.40629       -1.17720
C          4.52887       -2.64493       -1.57829
C          3.83123       -3.81198       -1.28062
C          2.62828       -3.74402       -0.58487
C          2.12104       -2.50784       -0.17992
H          3.91823        0.29083        1.30934
H          2.60871       -0.41903        2.01565
H          2.59997        1.22172        1.71414
H          2.71640        0.81585       -0.65658
H          0.35785       -0.46846        0.82982
H          0.34154       -0.02394       -0.88526
H          0.54269        1.22001        0.35775
H          4.59462       -0.51501       -1.43621
H          5.46550       -2.70455       -2.12926
H          4.22236       -4.77717       -1.59711
H          2.08224       -4.65897       -0.36215
H          1.17597       -2.50931        0.35901
