27
 xtb: 6.5.1 (fef0646)
N           -3.77154143563015       -0.56475908564377        0.11261641969111
C           -2.63809538420059        0.37684585690769        0.35299454128301
C           -1.48328647750896        0.20909188555597       -0.64870080211243
C           -0.71509689871390       -1.12392823989870       -0.44277413435046
C            0.12836606041209       -1.12789144945053        0.84508087932148
C            1.10832641558830        0.06917041092473        0.89113310949697
C            2.20464218418694       -0.10337856123049       -0.13594587189529
O            3.46181680529529       -0.18686216334560        0.33739283413824
O            1.92286893758454       -0.16470520152588       -1.30792529087552
C            0.35948267102618        1.40565184523190        0.68535923789049
C           -0.48248807796042        1.39604188814674       -0.60284511590284
H           -3.43187888015666       -1.55061420583127        0.13395592359959
H           -4.22481193602886       -0.39903100213961       -0.79705190651663
H           -4.49344047979151       -0.47235969359496        0.85699854807821
H           -2.27688468719248        0.28008152347348        1.36740525042750
H           -3.03456869659534        1.40806314038037        0.27349456503349
H           -1.92365974968125        0.19076887943497       -1.65491128561664
H           -0.04750464437323       -1.28720348406665       -1.30025332224966
H           -1.41123430441640       -1.97057507241369       -0.45028218976064
H            0.69724795049154       -2.07026111864586        0.91429471496475
H           -0.52419441911295       -1.11855487728432        1.72215835320673
H            1.61085032582601        0.07261877627247        1.87415407397019
H            4.08038034834921       -0.29220236982913       -0.40160393679879
H            1.08994440664505        2.21939435951385        0.66746597324333
H           -0.27846151603853        1.60052643795959        1.56106635339504
H            0.19497331429991        1.33804406951336       -1.45505707639311
H           -1.01961995256378        2.34585150352414       -0.69904572876017
