 xtb: 6.5.1 (fef0646)
          01242316583D

 27 27  0     0  0            999 V2000
   -3.7722   -0.5726    0.1216 N   0  0  0  0  0  0  0  0  0  0  0  0
   -2.6486    0.3896    0.3391 C   0  0  0  0  0  0  0  0  0  0  0  0
   -1.4801    0.2095   -0.6439 C   0  0  0  0  0  0  0  0  0  0  0  0
   -0.7142   -1.1251   -0.4443 C   0  0  0  0  0  0  0  0  0  0  0  0
    0.1296   -1.1366    0.8425 C   0  0  0  0  0  0  0  0  0  0  0  0
    1.1124    0.0576    0.8921 C   0  0  0  0  0  0  0  0  0  0  0  0
    2.2044   -0.1018   -0.1410 C   0  0  0  0  0  0  0  0  0  0  0  0
    3.4643   -0.1855    0.3252 O   0  0  0  0  0  0  0  0  0  0  0  0
    1.9191   -0.1479   -1.3136 O   0  0  0  0  0  0  0  0  0  0  0  0
    0.3631    1.3962    0.6993 C   0  0  0  0  0  0  0  0  0  0  0  0
   -0.4799    1.3970   -0.5882 C   0  0  0  0  0  0  0  0  0  0  0  0
   -3.4737   -1.5411    0.2810 H   0  0  0  0  0  0  0  0  0  0  0  0
   -4.1284   -0.5057   -0.8381 H   0  0  0  0  0  0  0  0  0  0  0  0
   -4.5517   -0.3815    0.7607 H   0  0  0  0  0  0  0  0  0  0  0  0
   -2.2861    0.3004    1.3670 H   0  0  0  0  0  0  0  0  0  0  0  0
   -3.0404    1.4092    0.2519 H   0  0  0  0  0  0  0  0  0  0  0  0
   -1.9207    0.1924   -1.6547 H   0  0  0  0  0  0  0  0  0  0  0  0
   -0.0467   -1.2854   -1.3007 H   0  0  0  0  0  0  0  0  0  0  0  0
   -1.4116   -1.9696   -0.4532 H   0  0  0  0  0  0  0  0  0  0  0  0
    0.6969   -2.0733    0.9122 H   0  0  0  0  0  0  0  0  0  0  0  0
   -0.5237   -1.1213    1.7216 H   0  0  0  0  0  0  0  0  0  0  0  0
    1.6133    0.0670    1.8738 H   0  0  0  0  0  0  0  0  0  0  0  0
    4.0800   -0.2860   -0.4064 H   0  0  0  0  0  0  0  0  0  0  0  0
    1.0907    2.2169    0.6735 H   0  0  0  0  0  0  0  0  0  0  0  0
   -0.2771    1.5952    1.5659 H   0  0  0  0  0  0  0  0  0  0  0  0
    0.1955    1.3405   -1.4511 H   0  0  0  0  0  0  0  0  0  0  0  0
   -1.0190    2.3463   -0.6922 H   0  0  0  0  0  0  0  0  0  0  0  0
  1  2  1  0  0  0  0
  2  3  1  0  0  0  0
  3  4  1  0  0  0  0
  4  5  1  0  0  0  0
  5  6  1  0  0  0  0
  6  7  1  0  0  0  0
  7  8  1  0  0  0  0
  7  9  2  0  0  0  0
  6 10  1  0  0  0  0
  3 11  1  0  0  0  0
 10 11  1  0  0  0  0
  1 12  1  0  0  0  0
  1 13  1  0  0  0  0
  1 14  1  0  0  0  0
  2 15  1  0  0  0  0
  2 16  1  0  0  0  0
  3 17  1  0  0  0  0
  4 18  1  0  0  0  0
  4 19  1  0  0  0  0
  5 20  1  0  0  0  0
  5 21  1  0  0  0  0
  6 22  1  0  0  0  0
  8 23  1  0  0  0  0
 10 24  1  0  0  0  0
 10 25  1  0  0  0  0
 11 26  1  0  0  0  0
 11 27  1  0  0  0  0
M  CHG  1   1   1
M  END
