 xtb: 6.5.1 (fef0646)
          01242314563D

 36 36  0     0  0            999 V2000
    2.7975    0.4089    2.7971 N   0  0  0  0  0  0  0  0  0  0  0  0
    2.3380   -0.8354    2.1486 C   0  0  0  0  0  0  0  0  0  0  0  0
    2.8990   -0.9098    0.7291 C   0  0  0  0  0  0  0  0  0  0  0  0
    4.3976   -1.0179    0.7367 C   0  0  0  0  0  0  0  0  0  0  0  0
    5.0263   -2.2553    0.8289 C   0  0  0  0  0  0  0  0  0  0  0  0
    6.4024   -2.3526    0.8557 C   0  0  0  0  0  0  0  0  0  0  0  0
    7.2028   -1.2081    0.7941 C   0  0  0  0  0  0  0  0  0  0  0  0
    8.6527   -1.2455    0.8059 C   0  0  0  0  0  0  0  0  0  0  0  0
    9.4197   -2.3391    0.6867 C   0  0  0  0  0  0  0  0  0  0  0  0
   10.8699   -2.3704    0.6811 C   0  0  0  0  0  0  0  0  0  0  0  0
   11.6561   -1.2572    0.9920 C   0  0  0  0  0  0  0  0  0  0  0  0
   13.0272   -1.3745    0.9587 C   0  0  0  0  0  0  0  0  0  0  0  0
   13.7806   -0.2728    1.2687 F   0  0  0  0  0  0  0  0  0  0  0  0
   13.6782   -2.5483    0.6307 C   0  0  0  0  0  0  0  0  0  0  0  0
   12.8982   -3.6527    0.3263 C   0  0  0  0  0  0  0  0  0  0  0  0
   11.5203   -3.5656    0.3543 C   0  0  0  0  0  0  0  0  0  0  0  0
    6.5633    0.0333    0.7165 C   0  0  0  0  0  0  0  0  0  0  0  0
    5.1863    0.1275    0.6870 C   0  0  0  0  0  0  0  0  0  0  0  0
    2.2791    2.8702    1.0506 Cl  0  0  0  0  0  0  0  0  0  0  0  0
    2.3903    0.5300    3.7264 H   0  0  0  0  0  0  0  0  0  0  0  0
    2.5393    1.2433    2.2096 H   0  0  0  0  0  0  0  0  0  0  0  0
    3.8196    0.4167    2.8595 H   0  0  0  0  0  0  0  0  0  0  0  0
    1.2500   -0.8263    2.1047 H   0  0  0  0  0  0  0  0  0  0  0  0
    2.6746   -1.6932    2.7324 H   0  0  0  0  0  0  0  0  0  0  0  0
    2.6003   -0.0062    0.1958 H   0  0  0  0  0  0  0  0  0  0  0  0
    2.4683   -1.7724    0.2224 H   0  0  0  0  0  0  0  0  0  0  0  0
    4.4285   -3.1536    0.8723 H   0  0  0  0  0  0  0  0  0  0  0  0
    6.8611   -3.3256    0.9314 H   0  0  0  0  0  0  0  0  0  0  0  0
    9.1213   -0.2741    0.8934 H   0  0  0  0  0  0  0  0  0  0  0  0
    8.9542   -3.3056    0.5545 H   0  0  0  0  0  0  0  0  0  0  0  0
   11.2191   -0.3113    1.2658 H   0  0  0  0  0  0  0  0  0  0  0  0
   14.7548   -2.5859    0.6195 H   0  0  0  0  0  0  0  0  0  0  0  0
   13.3760   -4.5844    0.0679 H   0  0  0  0  0  0  0  0  0  0  0  0
   10.9284   -4.4356    0.1136 H   0  0  0  0  0  0  0  0  0  0  0  0
    7.1594    0.9339    0.6682 H   0  0  0  0  0  0  0  0  0  0  0  0
    4.7138    1.0970    0.6068 H   0  0  0  0  0  0  0  0  0  0  0  0
  1  2  1  0  0  0  0
  2  3  1  0  0  0  0
  3  4  1  0  0  0  0
  4  5  4  0  0  0  0
  5  6  4  0  0  0  0
  6  7  4  0  0  0  0
  7  8  1  0  0  0  0
  8  9  2  0  0  0  0
  9 10  1  0  0  0  0
 10 11  4  0  0  0  0
 11 12  4  0  0  0  0
 12 13  1  0  0  0  0
 12 14  4  0  0  0  0
 14 15  4  0  0  0  0
 10 16  4  0  0  0  0
 15 16  4  0  0  0  0
  7 17  4  0  0  0  0
  4 18  4  0  0  0  0
 17 18  4  0  0  0  0
  1 20  1  0  0  0  0
  1 21  1  0  0  0  0
  1 22  1  0  0  0  0
  2 23  1  0  0  0  0
  2 24  1  0  0  0  0
  3 25  1  0  0  0  0
  3 26  1  0  0  0  0
  5 27  1  0  0  0  0
  6 28  1  0  0  0  0
  8 29  1  0  0  0  0
  9 30  1  0  0  0  0
 11 31  1  0  0  0  0
 14 32  1  0  0  0  0
 15 33  1  0  0  0  0
 16 34  1  0  0  0  0
 17 35  1  0  0  0  0
 18 36  1  0  0  0  0
M  END
