 xtb: 6.5.1 (fef0646)
          01242310113D

 17 16  0     0  0            999 V2000
   -1.5015   -1.6270    0.7622 N   0  0  0  0  0  0  0  0  0  0  0  0
   -2.7204   -0.8359    0.4092 C   0  0  0  0  0  0  0  0  0  0  0  0
   -2.4094    0.5789   -0.0821 C   0  0  0  0  0  0  0  0  0  0  0  0
   -1.4623    1.3842    0.8441 C   0  0  0  0  0  0  0  0  0  0  0  0
   -0.0978    1.6616    0.2344 C   0  0  0  0  0  0  0  0  0  0  0  0
    0.9454   -0.0975   -0.2592 I   0  0  0  0  0  0  0  0  0  0  0  0
   -1.6930   -2.6422    0.7730 H   0  0  0  0  0  0  0  0  0  0  0  0
   -1.1450   -1.3818    1.6997 H   0  0  0  0  0  0  0  0  0  0  0  0
   -0.7195   -1.4512    0.0742 H   0  0  0  0  0  0  0  0  0  0  0  0
   -3.3812   -0.7947    1.2844 H   0  0  0  0  0  0  0  0  0  0  0  0
   -3.2897   -1.3764   -0.3589 H   0  0  0  0  0  0  0  0  0  0  0  0
   -3.3491    1.1270   -0.2362 H   0  0  0  0  0  0  0  0  0  0  0  0
   -1.9605    0.5199   -1.0809 H   0  0  0  0  0  0  0  0  0  0  0  0
   -1.3382    0.8510    1.7959 H   0  0  0  0  0  0  0  0  0  0  0  0
   -1.9328    2.3394    1.1246 H   0  0  0  0  0  0  0  0  0  0  0  0
    0.5499    2.2236    0.9111 H   0  0  0  0  0  0  0  0  0  0  0  0
   -0.1825    2.2346   -0.6908 H   0  0  0  0  0  0  0  0  0  0  0  0
  1  2  1  0  0  0  0
  2  3  1  0  0  0  0
  3  4  1  0  0  0  0
  4  5  1  0  0  0  0
  5  6  1  0  0  0  0
  1  7  1  0  0  0  0
  1  8  1  0  0  0  0
  1  9  1  0  0  0  0
  2 10  1  0  0  0  0
  2 11  1  0  0  0  0
  3 12  1  0  0  0  0
  3 13  1  0  0  0  0
  4 14  1  0  0  0  0
  4 15  1  0  0  0  0
  5 16  1  0  0  0  0
  5 17  1  0  0  0  0
M  CHG  1   1   1
M  END
