41
0.864
N           -2.40755  -2.13476   0.12033
C           -3.74082  -1.69324  -0.38004
C           -4.24800  -0.41449   0.29534
C           -3.89490   0.87791  -0.44875
C           -2.40150   1.20815  -0.52334
C           -1.75212   1.43830   0.84361
C           -0.33511   2.01477   0.76407
C            0.69000   1.08007   0.11914
C            2.08980   1.69525   0.05839
C            3.13009   0.81888  -0.64610
C            3.48878  -0.45645   0.11839
C            4.58822  -1.27331  -0.56446
C            4.96077  -2.53198   0.20333
H           -2.43643  -2.31072   1.13627
H           -1.67809  -1.42758  -0.05047
H           -2.10170  -3.00957  -0.33404
H           -4.45256  -2.51395  -0.21799
H           -3.70574  -1.55438  -1.46711
H           -3.86539  -0.37254   1.32079
H           -5.33951  -0.47097   0.40701
H           -4.41385   1.72158   0.02382
H           -4.30996   0.82412  -1.46306
H           -2.25896   2.10874  -1.13410
H           -1.87238   0.41847  -1.06641
H           -1.73523   0.50245   1.41272
H           -2.39009   2.11467   1.42621
H            0.01398   2.28466   1.76860
H           -0.36031   2.96008   0.20949
H            0.36684   0.81543  -0.89369
H            0.71922   0.13335   0.66961
H            2.43272   1.92367   1.07419
H            2.02454   2.66803  -0.44504
H            4.04713   1.39719  -0.81509
H            2.77037   0.55653  -1.64765
H            2.59707  -1.07992   0.24672
H            3.80553  -0.19672   1.13520
H            5.47568  -0.64228  -0.70062
H            4.26750  -1.53383  -1.58102
H            5.74681  -3.10012  -0.29897
H            4.10125  -3.19419   0.31891
H            5.32064  -2.29203   1.20538
