41
1.283
N           -3.66437  -1.64271   0.55594
C           -4.30987  -0.99023  -0.61913
C           -4.17580   0.53660  -0.61501
C           -2.96579   1.07061  -1.38998
C           -1.59659   0.70066  -0.81241
C           -1.35225   1.25441   0.59278
C            0.08625   1.07568   1.08874
C            0.52451  -0.38510   1.21017
C            1.87126  -0.56647   1.91773
C            3.05862   0.10281   1.21897
C            3.38091  -0.48122  -0.15726
C            4.62195   0.14611  -0.79643
C            4.95505  -0.44365  -2.15796
H           -4.07164  -1.29764   1.43842
H           -2.65133  -1.45962   0.59055
H           -3.79146  -2.66673   0.54016
H           -5.37037  -1.27621  -0.62476
H           -3.89731  -1.40031  -1.54855
H           -4.14451   0.89258   0.42034
H           -5.08825   0.98194  -1.03478
H           -3.03106   2.16422  -1.45413
H           -3.03232   0.72270  -2.42846
H           -0.80713   1.07271  -1.47762
H           -1.47343  -0.38725  -0.81628
H           -2.04243   0.78393   1.30163
H           -1.61537   2.31947   0.60443
H            0.20234   1.56349   2.06459
H            0.76934   1.60982   0.41874
H            0.56242  -0.84427   0.21638
H           -0.25035  -0.94282   1.75062
H            2.08574  -1.63611   2.03395
H            1.78535  -0.18013   2.94114
H            3.95096   0.02274   1.85262
H            2.87800   1.17940   1.12600
H            2.52315  -0.35646  -0.82742
H            3.52252  -1.56482  -0.07123
H            5.47679   0.02755  -0.11857
H            4.47658   1.23042  -0.88167
H            5.84417   0.01504  -2.59619
H            4.13343  -0.30302  -2.86209
H            5.14140  -1.51683  -2.08918
