41
1.085
N           -3.93914  -2.59259   0.17003
C           -4.47919  -1.39883  -0.54022
C           -4.54514  -0.15978   0.34695
C           -3.18296   0.33111   0.84365
C           -2.24998   0.80214  -0.27323
C           -0.93525   1.38547   0.24817
C           -0.01070   1.87240  -0.86866
C            1.26497   2.55390  -0.36420
C            2.20511   1.64223   0.42989
C            2.78663   0.48923  -0.38950
C            3.78987  -0.35779   0.39543
C            4.37857  -1.50870  -0.42253
C            5.37814  -2.34466   0.36162
H           -4.49562  -2.80272   1.01224
H           -2.96413  -2.44780   0.47174
H           -3.95495  -3.43368  -0.42772
H           -5.47947  -1.63867  -0.92367
H           -3.87072  -1.19633  -1.42877
H           -5.19300  -0.37709   1.20513
H           -5.04386   0.65563  -0.19158
H           -2.69086  -0.45780   1.42296
H           -3.32546   1.15444   1.55492
H           -2.76426   1.55158  -0.88600
H           -2.03396  -0.02685  -0.95613
H           -0.42179   0.63539   0.85974
H           -1.14954   2.21496   0.93200
H           -0.56868   2.56575  -1.51059
H            0.24725   1.03217  -1.52260
H            0.98352   3.41746   0.25122
H            1.81702   2.97598  -1.21317
H            1.68491   1.24177   1.30698
H            3.03226   2.23456   0.84113
H            3.26938   0.88711  -1.28963
H            1.97888  -0.15282  -0.75757
H            3.30918  -0.75581   1.29659
H            4.60082   0.28123   0.76390
H            4.85388  -1.10483  -1.32537
H            3.56396  -2.14479  -0.79104
H            6.21801  -1.73799   0.70473
H            5.78735  -3.16159  -0.23642
H            4.91665  -2.78608   1.24665
