 xtb: 6.5.1 (fef0646)
          01242314553D

 16 15  0     0  0            999 V2000
    1.2889   -0.3817   -0.3274 N   0  0  0  0  0  0  0  0  0  0  0  0
    2.7395   -0.0805   -0.2445 C   0  0  0  0  0  0  0  0  0  0  0  0
    3.0500    1.1872   -0.9624 C   0  0  0  0  0  0  0  0  0  0  0  0
    3.0622    2.4568   -0.4760 C   0  0  0  0  0  0  0  0  0  0  0  0
    3.3527    3.4229   -1.4653 C   0  0  0  0  0  0  0  0  0  0  0  0
    3.5523    2.8762   -2.6915 C   0  0  0  0  0  0  0  0  0  0  0  0
    3.3915    1.1724   -2.6660 S   0  0  0  0  0  0  0  0  0  0  0  0
   -0.2651    1.8356    1.0832 Cl  0  0  0  0  0  0  0  0  0  0  0  0
    1.0662   -1.2558    0.1555 H   0  0  0  0  0  0  0  0  0  0  0  0
    0.9861   -0.4383   -1.3038 H   0  0  0  0  0  0  0  0  0  0  0  0
    0.7368    0.3866    0.1356 H   0  0  0  0  0  0  0  0  0  0  0  0
    3.3011   -0.9030   -0.6891 H   0  0  0  0  0  0  0  0  0  0  0  0
    3.0072    0.0313    0.8062 H   0  0  0  0  0  0  0  0  0  0  0  0
    2.8514    2.6979    0.5501 H   0  0  0  0  0  0  0  0  0  0  0  0
    3.4073    4.4794   -1.2713 H   0  0  0  0  0  0  0  0  0  0  0  0
    3.7852    3.3703   -3.6137 H   0  0  0  0  0  0  0  0  0  0  0  0
  1  2  1  0  0  0  0
  2  3  1  0  0  0  0
  3  4  2  0  0  0  0
  4  5  4  0  0  0  0
  5  6  2  0  0  0  0
  3  7  1  0  0  0  0
  6  7  1  0  0  0  0
  1  9  1  0  0  0  0
  1 10  1  0  0  0  0
  1 11  1  0  0  0  0
  2 12  1  0  0  0  0
  2 13  1  0  0  0  0
  4 14  1  0  0  0  0
  5 15  1  0  0  0  0
  6 16  1  0  0  0  0
M  END
