  25

 N         -2.9247277304       -1.3232994339        0.6314610558
 C         -2.0037818641       -1.9265099061       -0.3765793157
 C         -0.5906808984       -1.4526105619       -0.2268772231
 C          0.4618268255       -2.3755627071       -0.0648477835
 C          1.7518461762       -1.9567653601        0.0663874873
 C         -0.3036590150       -0.1162047036       -0.2508500193
 C          1.0209874523        0.3561608157       -0.1178881417
 C          2.0690831393       -0.5800634924        0.0427822235
 C          3.3946880551       -0.1060067218        0.1743484451
 C          3.6592413217        1.2306152034        0.1480165038
 C          2.6198535018        2.1582042105       -0.0097927203
 C          1.3311526183        1.7352283960       -0.1396630836
 Cl        -2.9232019720        2.1573476361       -0.1540749706
 H         -3.8811832915       -1.6961433359        0.5551810109
 H         -2.9758965708       -0.2985431980        0.5069769138
 H         -2.5854997860       -1.5024572086        1.5854425803
 H         -2.3545279066       -1.6948338914       -1.3887116415
 H         -2.0344769804       -3.0186929186       -0.2961865322
 H          0.2327871236       -3.4277091913       -0.0455886923
 H          2.5469476819       -2.6724924989        0.1892998320
 H         -1.1003060519        0.5977322242       -0.3624941074
 H          4.1934797265       -0.8179504975        0.2959346978
 H          4.6738435704        1.5808438576        0.2490529527
 H          2.8453038341        3.2123418048       -0.0279051026
 H          0.5311835652        2.4462540291       -0.2595982603
          25
        -37.16813692
 N         -2.7291771371       -1.8491668013       -0.6478949931
 C         -1.6898355655       -2.0300470699        0.4079493913
 C         -0.5528888174       -1.0630994683        0.2754659325
 C         -0.8012728759        0.3220685124        0.2629495708
 C          0.2161266482        1.2209157273        0.1512841182
 C          0.7377480110       -1.5080447852        0.1719007977
 C          1.8198668430       -0.6062049394        0.0546778222
 C          1.5551700097        0.7836564780        0.0449904429
 C          2.6372808708        1.6861971544       -0.0716829953
 C          3.9160957974        1.2265921359       -0.1726922760
 C          4.1787818331       -0.1503978423       -0.1628545905
 C          3.1589727176       -1.0474234493       -0.0522545083
 Cl        -4.1330901991        1.3505993394       -0.0255553097
 H         -3.4740659803       -2.5568081138       -0.5839840768
 H         -2.3080715634       -1.9098172617       -1.5869272131
 H         -3.1706606420       -0.9210582476       -0.5652467978
 H         -1.3047430445       -3.0553584795        0.3720068644
 H         -2.1418137189       -1.9193280861        1.4000849067
 H         -1.8187571199        0.6678552311        0.3327437159
 H          0.0101913925        2.2778141792        0.1408860847
 H          0.9394065099       -2.5647385261        0.1805548605
 H          2.4356594907        2.7440318206       -0.0792969102
 H          4.7336447780        1.9238336534       -0.2606978786
 H          5.1959675628       -0.4984956904       -0.2436051309
 H          3.3615517630       -2.1051837027       -0.0450325041
          25
        -37.16835168
 N         -2.7311837639       -1.8413890032        0.6475667951
 C         -1.6894666548       -2.0247416451       -0.4054657782
 C         -0.5517272706       -1.0588827636       -0.2718304766
 C         -0.7982016543        0.3266402770       -0.2565975945
 C          0.2206983711        1.2238160377       -0.1445816539
 C          0.7384507529       -1.5056887858       -0.1708473966
 C          1.8220425190       -0.6055954590       -0.0543598095
 C          1.5593912079        0.7846048890       -0.0412150854
 C          2.6431992590        1.6852073233        0.0749157720
 C          3.9216501790        1.2234281008        0.1708970467
 C          4.1823767845       -0.1539049790        0.1563318752
 C          3.1608457454       -1.0490763729        0.0468822681
 Cl        -4.1441070584        1.3425880830        0.0209727056
 H         -3.4745453626       -2.5507936518        0.5850216168
 H         -3.1756055418       -0.9121319542        0.5603144020
 H         -2.3126031181       -1.8970398115        1.5851802622
 H         -2.1387143481       -1.9153887110       -1.3990882343
 H         -1.3052879621       -3.0501999508       -0.3669305392
 H         -1.8153370265        0.6740094394       -0.3240820835
 H          0.0163676531        2.2809937777       -0.1315902921
 H          0.9387028486       -2.5626336732       -0.1818629821
 H          2.4431104133        2.7432968989        0.0863801987
 H          4.7405669484        1.9190845692        0.2587310006
 H          5.1993358579       -0.5038307485        0.2319904559
 H          3.3619205885       -2.1070759782        0.0350029776
