  25

 N          1.1862901635        0.0101727679        0.0256565752
 C          2.5708619821       -0.5020678075        0.1409632918
 C          3.1302621957       -0.2840258126        1.5222922826
 C          3.6857200520       -1.3644784306        2.2345065152
 C          4.2039984245       -1.1849046356        3.4859288913
 C          3.1098785721        0.9635408377        2.0923940711
 C          3.6311714617        1.1788514676        3.3833857104
 C          4.1905255133        0.0861808354        4.0968531222
 C          4.7122499104        0.3093406812        5.3882471057
 C          4.6835831731        1.5568535347        5.9456530526
 C          4.1310764713        2.6385179047        5.2396458009
 C          3.6157832733        2.4537968287        3.9876466572
 Cl         0.9241616950        3.0660961398       -0.0332938840
 H          0.7809582267       -0.2393291992       -0.8796142700
 H          1.1556101732        1.0586683728        0.0821394231
 H          0.5978016084       -0.3553737164        0.7785746742
 H          3.1899939423        0.0262405790       -0.5863160806
 H          2.5791075280       -1.5675667376       -0.0915759567
 H          3.7039749115       -2.3436201337        1.7806468251
 H          4.6302601328       -2.0151468167        4.0294691556
 H          2.6885380098        1.8060181718        1.5629710475
 H          5.1359260115       -0.5241247336        5.9297899546
 H          5.0849344861        1.7231972117        6.9344724698
 H          4.1172877113        3.6175532352        5.6962612634
 H          3.1857243704        3.2791994555        3.4369723014
