19
 xtb: 6.5.1 (fef0646)
N           -1.22738612234100       -1.47764835110322        1.33484677267936
C           -0.51928123349233       -2.27448582230982        0.29623954871188
C           -0.02388390131530       -1.40563746688186       -0.85760312749096
C            0.80153789700568       -0.25770441689500       -0.39299658276557
C            0.32290134465112        0.97717485477174       -0.09130022454447
C            1.33009347694867        1.88522003560193        0.35102722562844
C            2.56542362669904        1.33441008735384        0.38210315051103
S            2.53009971991428       -0.30754259102816       -0.15464332107436
Cl          -3.29288018178256        1.00263138042094       -0.42985258005139
H           -0.60092641900600       -0.79839426076223        1.78132936621270
H           -1.69972167032263       -2.03426947641158        2.03351008048603
H           -1.98367251391012       -0.86989171393527        0.86747632620741
H           -1.19772454669778       -3.04690249049720       -0.09729709188081
H            0.30522109717386       -2.77279582895742        0.75561112083010
H           -0.88154944346656       -1.00110980046083       -1.44279188432528
H            0.55168442557553       -1.99335895114690       -1.57892722713963
H           -0.71081588159600        1.26417554478717       -0.22954862435384
H            1.13927977891751        2.92676882150650        0.58667936257338
H            3.46625652468658        1.83032854487141        0.69829850593324
