 xtb: 6.5.1 (fef0646)
          01242316463D

 12 10  0     0  0            999 V2000
    1.1414    0.0181    0.4086 N   0  0  0  0  0  0  0  0  0  0  0  0
    2.6066   -0.0643    0.2552 C   0  0  0  0  0  0  0  0  0  0  0  0
    3.1300    1.2137   -0.3747 C   0  0  0  0  0  0  0  0  0  0  0  0
    3.0280    2.2590    0.5411 F   0  0  0  0  0  0  0  0  0  0  0  0
    0.0507    0.7009   -2.3519 Cl  0  0  0  0  0  0  0  0  0  0  0  0
    0.7503   -0.8482    0.7856 H   0  0  0  0  0  0  0  0  0  0  0  0
    0.7028    0.2032   -0.5328 H   0  0  0  0  0  0  0  0  0  0  0  0
    0.8903    0.8060    1.0127 H   0  0  0  0  0  0  0  0  0  0  0  0
    2.8534   -0.8902   -0.4097 H   0  0  0  0  0  0  0  0  0  0  0  0
    3.0753   -0.2136    1.2292 H   0  0  0  0  0  0  0  0  0  0  0  0
    2.5284    1.4965   -1.2417 H   0  0  0  0  0  0  0  0  0  0  0  0
    4.1860    1.1419   -0.6362 H   0  0  0  0  0  0  0  0  0  0  0  0
  1  2  1  0  0  0  0
  2  3  1  0  0  0  0
  3  4  1  0  0  0  0
  1  6  1  0  0  0  0
  1  7  1  0  0  0  0
  1  8  1  0  0  0  0
  2  9  1  0  0  0  0
  2 10  1  0  0  0  0
  3 11  1  0  0  0  0
  3 12  1  0  0  0  0
M  END
