36

N          2.37386       -0.64089       -0.13430
C          2.91065        0.44835        0.72619
C          3.45896        1.57888       -0.11993
O          4.51377        1.07771       -0.95046
C          5.09477        2.04308       -1.74862
C          6.13734        1.64890       -2.62880
C          6.64084        0.33304       -2.69485
C          7.67543       -0.00775       -3.57220
C          6.71529        2.62740       -3.47478
C          6.26297        3.97552       -3.42954
C          5.25745        4.32766       -2.53159
C          4.69098        3.38228       -1.70109
C          6.83159        4.92635       -4.27755
C          7.85019        4.57752       -5.16428
C          8.32751        3.26252       -5.22107
C          9.35662        2.90365       -6.10304
C          9.82584        1.59210       -6.14800
C          9.27282        0.62368       -5.31172
C          8.24047        0.95227       -4.41975
C          7.76115        2.28026       -4.37212
H          1.99813       -1.40515        0.43014
H          3.11414       -1.03054       -0.74245
H          1.62267       -0.30722       -0.75498
H          3.69065        0.00061        1.35029
H          2.08486        0.79366        1.35678
H          3.83905        2.35308        0.55680
H          2.65844        1.99189       -0.74846
H          6.24159       -0.44235       -2.04806
H          8.04098       -1.03287       -3.58823
H          4.91902        5.36703       -2.46925
H          3.94101        3.73910       -1.00672
H          6.49069        5.95982       -4.25808
H          8.27165        5.34522       -5.81069
H          9.80365        3.64513       -6.76202
H         10.62514        1.32620       -6.83608
H          9.65733       -0.39307       -5.36365
