16
0.167
N            0.15693  -1.38143  -1.03255
C            1.17139  -1.64764   0.02770
C            1.51801  -0.39091   0.82506
C            2.05147   0.71141  -0.02643
C            1.28344   1.65167  -0.54044
Cl          -2.40014   0.55722   0.38015
H           -0.67308  -0.91308  -0.62933
H           -0.15694  -2.24337  -1.50194
H            0.53633  -0.75034  -1.75223
H            2.07937  -2.05677  -0.43089
H            0.80194  -2.43175   0.70038
H            2.23696  -0.62866   1.61977
H            0.62245  -0.03478   1.34825
H            3.10304   0.69402  -0.26737
H            0.22855   1.66803  -0.34422
H            1.67498   2.42662  -1.17180
