 xtb: 6.5.1 (fef0646)
          02032320273D

 16 14  0     0  0            999 V2000
    0.1569   -1.3814   -1.0325 N   0  0  0  0  0  0  0  0  0  0  0  0
    1.1714   -1.6476    0.0277 C   0  0  0  0  0  0  0  0  0  0  0  0
    1.5180   -0.3909    0.8251 C   0  0  0  0  0  0  0  0  0  0  0  0
    2.0515    0.7114   -0.0264 C   0  0  0  0  0  0  0  0  0  0  0  0
    1.2834    1.6517   -0.5404 C   0  0  0  0  0  0  0  0  0  0  0  0
   -2.4001    0.5572    0.3802 Cl  0  0  0  0  0  0  0  0  0  0  0  0
   -0.6731   -0.9131   -0.6293 H   0  0  0  0  0  0  0  0  0  0  0  0
   -0.1570   -2.2434   -1.5019 H   0  0  0  0  0  0  0  0  0  0  0  0
    0.5363   -0.7503   -1.7522 H   0  0  0  0  0  0  0  0  0  0  0  0
    2.0794   -2.0568   -0.4309 H   0  0  0  0  0  0  0  0  0  0  0  0
    0.8019   -2.4318    0.7004 H   0  0  0  0  0  0  0  0  0  0  0  0
    2.2370   -0.6287    1.6198 H   0  0  0  0  0  0  0  0  0  0  0  0
    0.6225   -0.0348    1.3482 H   0  0  0  0  0  0  0  0  0  0  0  0
    3.1030    0.6940   -0.2674 H   0  0  0  0  0  0  0  0  0  0  0  0
    0.2286    1.6680   -0.3442 H   0  0  0  0  0  0  0  0  0  0  0  0
    1.6750    2.4266   -1.1718 H   0  0  0  0  0  0  0  0  0  0  0  0
  1  2  1  0  0  0  0
  2  3  1  0  0  0  0
  3  4  1  0  0  0  0
  4  5  2  0  0  0  0
  1  7  1  0  0  0  0
  1  8  1  0  0  0  0
  1  9  1  0  0  0  0
  2 10  1  0  0  0  0
  2 11  1  0  0  0  0
  3 12  1  0  0  0  0
  3 13  1  0  0  0  0
  4 14  1  0  0  0  0
  5 15  1  0  0  0  0
  5 16  1  0  0  0  0
M  END
