18
 xtb: 6.5.1 (fef0646)
N            0.14465409655739        0.10112004784346       -0.37337550284360
C           -0.59931993437815       -0.78050503274440        0.57090771709029
C           -2.10989028730175       -0.85219756496550        0.33883761426157
C           -2.85460884905236        0.48221679058482        0.52131741143273
C           -2.94432718337924        1.30720961272475       -0.75445495153185
Cl           3.29657657697082       -0.14057170051522       -0.07164697140994
H            1.10492489011971        0.03888412176643       -0.29762171818170
H           -0.17576583123447        1.10056294743782       -0.23431428887867
H           -0.17078579149509       -0.12409416774163       -1.37003218661547
H           -0.42944911669513       -0.45059415919803        1.59050463371756
H           -0.20532341195482       -1.78924466629834        0.49538526688568
H           -2.56898887197092       -1.60149725029477        1.03595239587679
H           -2.35533716111173       -1.24855203590063       -0.65578872999994
H           -2.39313239752417        1.06378953506434        1.31892381755259
H           -3.90064241240606        0.30204252144304        0.90130376364833
H           -1.99035445928005        1.55046820449093       -1.15489149548083
H           -3.50194376004733        2.25209555765186       -0.59506192756076
H           -3.51022081333921        0.76275820901095       -1.53375713407553
