41
1.202
N            5.06624  -1.88643  -0.79468
C            5.40357  -0.45043  -1.02448
C            4.70788   0.49104  -0.04588
C            3.19028   0.53870  -0.22312
C            2.50859   1.51520   0.73673
C            0.99375   1.61786   0.53797
C            0.24119   0.32851   0.86996
C           -1.27584   0.47113   0.73787
C           -2.02731  -0.81877   1.06995
C           -3.55101  -0.67359   1.02389
C           -4.10104  -0.39273  -0.37507
C           -5.62794  -0.30671  -0.41086
C           -6.17255  -0.03356  -1.80491
H            5.58092  -2.50162  -1.43569
H            4.06439  -2.05992  -0.93552
H            5.29917  -2.16444   0.16548
H            5.14073  -0.17411  -2.05169
H            6.49119  -0.32696  -0.95527
H            5.11199   1.50488  -0.14965
H            4.94518   0.19010   0.97986
H            2.77364  -0.46367  -0.08638
H            2.94991   0.81255  -1.25630
H            2.96699   2.50460   0.62147
H            2.72240   1.21885   1.76959
H            0.77897   1.90901  -0.49616
H            0.59231   2.43113   1.15428
H            0.49232   0.00981   1.88772
H            0.58562  -0.48400   0.22155
H           -1.52185   0.79711  -0.27823
H           -1.62645   1.27778   1.39116
H           -1.71694  -1.16342   2.06364
H           -1.71375  -1.61101   0.38111
H           -3.86253   0.12615   1.70490
H           -4.02331  -1.58290   1.41448
H           -3.76148  -1.17244  -1.06591
H           -3.67714   0.53918  -0.76379
H           -5.96250   0.47373   0.28332
H           -6.05236  -1.23842  -0.01765
H           -5.78929   0.90775  -2.20007
H           -7.26200   0.02550  -1.81371
H           -5.88066  -0.81907  -2.50271
