41
1.232
N            4.64854  -2.38587   0.10567
C            4.35282  -1.49605   1.26753
C            4.11436  -0.04419   0.86327
C            2.84146   0.15699   0.04120
C            2.59542   1.62106  -0.32762
C            1.36930   1.83279  -1.22008
C            0.04399   1.49783  -0.53414
C           -1.17086   1.75889  -1.42611
C           -2.51087   1.49741  -0.73289
C           -2.74037   0.02979  -0.36955
C           -4.10451  -0.21888   0.27509
C           -4.33483  -1.68444   0.64673
C           -5.69113  -1.92427   1.29297
H            5.45618  -2.03617  -0.42219
H            3.85113  -2.43267  -0.53908
H            4.86003  -3.34413   0.40817
H            5.18531  -1.55488   1.97915
H            3.47799  -1.87775   1.80566
H            4.97629   0.32106   0.29526
H            4.06729   0.59102   1.75560
H            1.98513  -0.23744   0.59806
H            2.89131  -0.44230  -0.87355
H            3.48945   2.01609  -0.82462
H            2.48972   2.21500   0.58690
H            1.47084   1.23015  -2.12941
H            1.33661   2.87243  -1.56716
H           -0.04765   2.07994   0.38955
H            0.04870   0.45084  -0.21544
H           -1.09917   1.14201  -2.32872
H           -1.13308   2.79503  -1.78301
H           -3.33380   1.83711  -1.37314
H           -2.57978   2.11120   0.17208
H           -1.95251  -0.31538   0.30820
H           -2.63950  -0.59064  -1.26698
H           -4.89792   0.11729  -0.40166
H           -4.20727   0.40663   1.16882
H           -3.53422  -2.01736   1.31834
H           -4.23045  -2.30600  -0.25083
H           -5.79998  -1.34127   2.20808
H           -5.84071  -2.97351   1.55213
H           -6.50259  -1.63178   0.62580
