41
0.648
N            6.10546  -1.58085  -0.90778
C            6.08388  -0.50028   0.12219
C            4.91487   0.46538  -0.04864
C            3.55220  -0.17610   0.21142
C            2.39146   0.81002   0.07338
C            1.02782   0.17054   0.33600
C           -0.13305   1.15577   0.19659
C           -1.49557   0.51853   0.47189
C           -2.65661   1.50283   0.32390
C           -4.02187   0.90070   0.66796
C           -4.46894  -0.20037  -0.29454
C           -5.85851  -0.75125   0.03021
C           -6.29680  -1.85064  -0.92575
H            6.12510  -1.18088  -1.85276
H            5.27253  -2.17680  -0.83827
H            6.92932  -2.18482  -0.80344
H            7.03247   0.04857   0.07938
H            6.04869  -0.94919   1.12110
H            4.93309   0.88312  -1.06064
H            5.03806   1.32524   0.62030
H            3.54004  -0.61908   1.21334
H            3.39794  -1.01468  -0.47516
H            2.40276   1.25260  -0.92882
H            2.54041   1.65130   0.75929
H            1.01646  -0.27057   1.33886
H            0.87893  -0.67179  -0.34870
H           -0.12719   1.59048  -0.80915
H            0.02054   2.00227   0.87506
H           -1.50317   0.09162   1.48091
H           -1.63899  -0.33324  -0.20124
H           -2.67581   1.89228  -0.70001
H           -2.46441   2.37580   0.95911
H           -4.78348   1.68949   0.68308
H           -3.99949   0.50448   1.68918
H           -3.74418  -1.02126  -0.28623
H           -4.45689   0.18249  -1.32108
H           -6.58561   0.06973   0.01790
H           -5.86754  -1.12415   1.06159
H           -7.28861  -2.23392  -0.68083
H           -5.60438  -2.69267  -0.90170
H           -6.32903  -1.48882  -1.95394
