27

N          2.85067        1.02674       -0.85499
C          2.36569       -0.03846        0.05436
C          2.84984        0.19564        1.49203
C          2.35409       -0.95294        2.39046
C          2.74927       -0.76274        3.85426
C          2.27437        0.58731        4.39225
C          2.74081        0.76014        5.82356
O          1.85588        0.31100        6.73734
O          3.82432        1.23048        6.13573
C          2.80620        1.72839        3.51740
C          2.39737        1.55343        2.05644
H          2.58517        0.82760       -1.82903
H          3.87562        1.11329       -0.83131
H          2.45435        1.94747       -0.62364
H          2.75164       -0.98259       -0.34323
H          1.27355       -0.04014       -0.01670
H          3.94864        0.17666        1.49333
H          2.75887       -1.90702        2.03154
H          1.26102       -1.02862        2.32496
H          3.84006       -0.84284        3.94928
H          2.32824       -1.57691        4.45666
H          1.17821        0.63482        4.37297
H          1.02529       -0.05556        6.38104
H          3.90183        1.77540        3.57751
H          2.43603        2.69089        3.89062
H          2.83738        2.37378        1.47880
H          1.30777        1.64841        1.97041
