50
0.64
N           -7.88781   0.20257   1.68906
C           -8.20767   0.95713   0.44704
C           -7.62093   0.28669  -0.79203
C           -6.15992   0.03493  -0.66584
C           -5.59995  -1.11902  -0.21745
C           -4.18182  -1.08775  -0.17312
C           -3.64582   0.09908  -0.58827
C           -2.24065   0.40968  -0.64422
C           -1.70387   1.60108  -1.04997
C           -0.28565   1.65614  -1.01283
C            0.46191   2.85874  -1.47176
C            0.28659   0.48851  -0.54096
C            1.69341   0.17681  -0.33495
C            2.13340  -1.13155  -0.44766
C            3.46774  -1.50319  -0.26459
C            4.46404  -0.59501   0.04742
C            5.83768  -1.05123   0.22668
C            7.01072  -0.38015  -0.05073
C            7.10320   0.97916  -0.65168
C            8.17332  -1.13955   0.28186
C            7.90490  -2.36974   0.77591
S            6.20887  -2.63896   0.84735
C            4.06695   0.77545   0.24276
N            4.81791   1.77173   0.66716
S            3.87578   3.10841   0.80559
N            2.45344   2.43186   0.34302
C            2.66945   1.16614   0.04943
S           -0.96391  -0.67877  -0.20796
S           -4.92371   1.19250  -1.04302
Cl          -8.21501  -3.20776   0.99819
H           -6.87221   0.24002   1.88816
H           -8.13233  -0.79529   1.58127
H           -8.38470   0.57069   2.51703
H           -7.81744   1.97819   0.53691
H           -9.29527   1.06130   0.34482
H           -7.80506   0.89498  -1.68587
H           -8.12947  -0.66775  -0.97159
H           -6.18879  -1.96918   0.09312
H           -3.57614  -1.91654   0.15955
H           -2.31201   2.42929  -1.37833
H           -0.10188   3.40987  -2.22567
H            1.42082   2.57767  -1.90887
H            0.65860   3.53065  -0.63545
H            1.40873  -1.88798  -0.69764
H            3.74440  -2.53831  -0.37667
H            8.02569   1.09685  -1.22114
H            7.08302   1.74449   0.12541
H            6.26626   1.16442  -1.32612
H            9.17408  -0.75827   0.14132
H            8.63741  -3.09332   1.08255
