17
 xtb: 6.5.1 (fef0646)
N           -3.62412973071558        0.01311613518404       -0.56290689743696
C           -2.43383536595522        0.77398617280026       -0.08201407485165
C           -1.59458664000626        0.01737021171588        0.95044656820340
C           -0.85875061526291       -1.21314038408303        0.39552129671731
C            0.19867657916052       -0.90004638666713       -0.65464604523119
Br           1.57645938729993        0.25441457112974        0.00706646919042
H           -4.27839462392362       -0.22072485646477        0.23445062889108
H           -3.35992081395213       -0.90574138104930       -0.97198835994733
H           -4.18735830066615        0.50529591377790       -1.25825645027336
H           -2.82735981943602        1.72122848481275        0.33164172788884
H           -1.86336794018426        1.06009650484509       -0.96251211915403
H           -2.23682459126825       -0.25647910388690        1.77608718665171
H           -0.86880957274247        0.73769199959807        1.36590342162894
H           -1.59168181643823       -1.90165318600794       -0.01695626793799
H           -0.38297977245420       -1.72548807086256        1.22251657691652
H           -0.23209594597406       -0.36837814020265       -1.52640610263066
H            0.66858715503368       -1.79155994395591       -1.03587469919703
