17
 xtb: 6.5.1 (fef0646)
N           -3.58393360445356        0.04887636987860       -0.59742699838739
C           -2.39560251547777        0.78304074145359       -0.06923249993894
C           -1.58337913138055       -0.00402632626180        0.96480295672646
C           -0.85809613192181       -1.24596315445480        0.42227800170753
C            0.21335012381767       -0.95993488791217       -0.62124410684657
Br           1.52691572570358        0.28443176723453       -0.01654108604511
H           -4.22756713547554       -0.28422773559715        0.22930105664455
H           -3.35335136933738       -0.85231555381946       -1.05994435469373
H           -4.21493743084778        0.55198614479544       -1.20154270675819
H           -2.81654921182257        1.72012012939343        0.34340263769146
H           -1.84772738696444        1.07087537125066       -0.95306714522187
H           -2.23965306299599       -0.26114234481954        1.77644403417739
H           -0.86429251955694        0.72674068722477        1.37583527449555
H           -1.59360665820289       -1.90841810895776       -0.01002651493569
H           -0.38750255371552       -1.73506478221756        1.23290332884784
H           -0.22744034281935       -0.40083905606724       -1.52622135672581
H            0.68011734601900       -1.81135299934361       -1.01094863652882
