 xtb: 6.5.1 (fef0646)
          02032320393D

 17 16  0     0  0            999 V2000
   -3.6593   -0.0234   -0.5479 N   0  0  0  0  0  0  0  0  0  0  0  0
   -2.4784    0.7760   -0.0971 C   0  0  0  0  0  0  0  0  0  0  0  0
   -1.6026    0.0527    0.9280 C   0  0  0  0  0  0  0  0  0  0  0  0
   -0.8629   -1.1811    0.3877 C   0  0  0  0  0  0  0  0  0  0  0  0
    0.1934   -0.8711   -0.6639 C   0  0  0  0  0  0  0  0  0  0  0  0
    1.6234    0.2272    0.0234 Br  0  0  0  0  0  0  0  0  0  0  0  0
   -4.2384   -0.2972    0.2516 H   0  0  0  0  0  0  0  0  0  0  0  0
   -3.3692   -0.8765   -1.0357 H   0  0  0  0  0  0  0  0  0  0  0  0
   -4.2459    0.5165   -1.1919 H   0  0  0  0  0  0  0  0  0  0  0  0
   -2.8456    1.7188    0.3295 H   0  0  0  0  0  0  0  0  0  0  0  0
   -1.8845    1.0654   -0.9708 H   0  0  0  0  0  0  0  0  0  0  0  0
   -2.2328   -0.2424    1.7758 H   0  0  0  0  0  0  0  0  0  0  0  0
   -0.8711    0.7534    1.3502 H   0  0  0  0  0  0  0  0  0  0  0  0
   -1.5922   -1.8945   -0.0162 H   0  0  0  0  0  0  0  0  0  0  0  0
   -0.3826   -1.7125    1.2218 H   0  0  0  0  0  0  0  0  0  0  0  0
   -0.2319   -0.3535   -1.5259 H   0  0  0  0  0  0  0  0  0  0  0  0
    0.6619   -1.7840   -1.0430 H   0  0  0  0  0  0  0  0  0  0  0  0
  1  2  1  0  0  0  0
  2  3  1  0  0  0  0
  3  4  1  0  0  0  0
  4  5  1  0  0  0  0
  5  6  1  0  0  0  0
  1  7  1  0  0  0  0
  1  8  1  0  0  0  0
  1  9  1  0  0  0  0
  2 10  1  0  0  0  0
  2 11  1  0  0  0  0
  3 12  1  0  0  0  0
  3 13  1  0  0  0  0
  4 14  1  0  0  0  0
  4 15  1  0  0  0  0
  5 16  1  0  0  0  0
  5 17  1  0  0  0  0
M  CHG  1   1   1
M  END
