17
 xtb: 6.5.1 (fef0646)
N           -1.41568787148495       -1.76397420922329       -0.65427577488895
C           -2.13020431438675       -0.72809943622519        0.15405302284796
C           -2.16429591611842        0.66126360393540       -0.50301619687331
C           -1.03835160600737        1.62930842589099       -0.09066542840077
C            0.34830183928018        1.29447654103940       -0.61912468994195
Br           1.16355532672322       -0.15909132728238        0.29098285559354
H           -1.47853123336855       -2.68932014119271       -0.29569781400578
H           -0.47262823328375       -1.51446340752937       -0.91235066490908
H           -1.94911570828033       -1.82055722730551       -1.63408926463635
H           -1.58086461506105       -0.69072709307722        1.11889662940149
H           -3.11820811052214       -1.09409060574521        0.39921487693999
H           -3.13134928270316        1.13727207435186       -0.17651080751722
H           -2.24564756039650        0.56455807344194       -1.55889753651891
H           -0.95857374085035        1.71097586364480        0.98236218474908
H           -1.28696920736972        2.62976885104713       -0.46266521763132
H            1.02881049736910        2.08633611421350       -0.63181217774756
H            0.26974534533751        0.91998305144851       -1.70611188720316
