 xtb: 6.5.1 (fef0646)
          01242310103D

 25 24  0     0  0            999 V2000
   -0.9009   -0.9342    1.4948 N   0  0  0  0  0  0  0  0  0  0  0  0
   -0.9686   -2.2513    0.8042 C   0  0  0  0  0  0  0  0  0  0  0  0
   -0.6924   -2.1496   -0.6946 C   0  0  0  0  0  0  0  0  0  0  0  0
    0.7763   -1.8713   -1.0435 C   0  0  0  0  0  0  0  0  0  0  0  0
    1.2743   -0.5356   -0.5699 C   0  0  0  0  0  0  0  0  0  0  0  0
    2.2070   -0.4448    0.4567 C   0  0  0  0  0  0  0  0  0  0  0  0
    2.6017    0.7866    0.9426 C   0  0  0  0  0  0  0  0  0  0  0  0
    2.0779    1.9437    0.4015 C   0  0  0  0  0  0  0  0  0  0  0  0
    1.1604    1.8683   -0.6275 C   0  0  0  0  0  0  0  0  0  0  0  0
    0.7615    0.6364   -1.1091 C   0  0  0  0  0  0  0  0  0  0  0  0
   -2.8810    1.3568   -0.1768 Cl  0  0  0  0  0  0  0  0  0  0  0  0
    0.0390   -0.5259    1.3952 H   0  0  0  0  0  0  0  0  0  0  0  0
   -1.1141   -1.0000    2.5039 H   0  0  0  0  0  0  0  0  0  0  0  0
   -1.5629   -0.2586    1.0677 H   0  0  0  0  0  0  0  0  0  0  0  0
   -1.9609   -2.6883    0.9765 H   0  0  0  0  0  0  0  0  0  0  0  0
   -0.2579   -2.9480    1.2648 H   0  0  0  0  0  0  0  0  0  0  0  0
   -1.3222   -1.3594   -1.1196 H   0  0  0  0  0  0  0  0  0  0  0  0
   -1.0153   -3.0747   -1.1918 H   0  0  0  0  0  0  0  0  0  0  0  0
    0.9257   -1.9306   -2.1290 H   0  0  0  0  0  0  0  0  0  0  0  0
    1.4072   -2.6623   -0.6216 H   0  0  0  0  0  0  0  0  0  0  0  0
    2.6105   -1.3485    0.8845 H   0  0  0  0  0  0  0  0  0  0  0  0
    3.3216    0.8441    1.7444 H   0  0  0  0  0  0  0  0  0  0  0  0
    2.3873    2.9055    0.7801 H   0  0  0  0  0  0  0  0  0  0  0  0
    0.7505    2.7714   -1.0522 H   0  0  0  0  0  0  0  0  0  0  0  0
    0.0363    0.5756   -1.9041 H   0  0  0  0  0  0  0  0  0  0  0  0
  1  2  1  0  0  0  0
  2  3  1  0  0  0  0
  3  4  1  0  0  0  0
  4  5  1  0  0  0  0
  5  6  4  0  0  0  0
  6  7  4  0  0  0  0
  7  8  4  0  0  0  0
  8  9  4  0  0  0  0
  5 10  4  0  0  0  0
  9 10  4  0  0  0  0
  1 12  1  0  0  0  0
  1 13  1  0  0  0  0
  1 14  1  0  0  0  0
  2 15  1  0  0  0  0
  2 16  1  0  0  0  0
  3 17  1  0  0  0  0
  3 18  1  0  0  0  0
  4 19  1  0  0  0  0
  4 20  1  0  0  0  0
  6 21  1  0  0  0  0
  7 22  1  0  0  0  0
  8 23  1  0  0  0  0
  9 24  1  0  0  0  0
 10 25  1  0  0  0  0
M  END
