 xtb: 6.5.1 (fef0646)
          01242316343D

 42 40  0     0  0            999 V2000
    2.8721    2.9268    0.6838 N   0  0  0  0  0  0  0  0  0  0  0  0
    4.3322    2.8353    0.8964 C   0  0  0  0  0  0  0  0  0  0  0  0
    4.6816    2.9240    2.3761 C   0  0  0  0  0  0  0  0  0  0  0  0
    4.2645    1.6960    3.1873 C   0  0  0  0  0  0  0  0  0  0  0  0
    4.9654    0.3942    2.7885 C   0  0  0  0  0  0  0  0  0  0  0  0
    6.4944    0.4326    2.8228 C   0  0  0  0  0  0  0  0  0  0  0  0
    7.0588    0.7112    4.2142 C   0  0  0  0  0  0  0  0  0  0  0  0
    8.5849    0.6553    4.2329 C   0  0  0  0  0  0  0  0  0  0  0  0
    9.1481    0.9062    5.6298 C   0  0  0  0  0  0  0  0  0  0  0  0
   10.6747    0.8828    5.6491 C   0  0  0  0  0  0  0  0  0  0  0  0
   11.2347    1.1191    7.0498 C   0  0  0  0  0  0  0  0  0  0  0  0
   12.7617    1.1204    7.0674 C   0  0  0  0  0  0  0  0  0  0  0  0
   13.3137    1.3526    8.4689 C   0  0  0  0  0  0  0  0  0  0  0  0
    0.9782    0.7235    1.6592 Cl  0  0  0  0  0  0  0  0  0  0  0  0
    2.6419    2.9354   -0.3126 H   0  0  0  0  0  0  0  0  0  0  0  0
    2.4978    3.7692    1.1275 H   0  0  0  0  0  0  0  0  0  0  0  0
    2.3524    2.1148    1.0965 H   0  0  0  0  0  0  0  0  0  0  0  0
    4.8119    3.6576    0.3640 H   0  0  0  0  0  0  0  0  0  0  0  0
    4.6876    1.8927    0.4847 H   0  0  0  0  0  0  0  0  0  0  0  0
    4.1969    3.8005    2.8085 H   0  0  0  0  0  0  0  0  0  0  0  0
    5.7568    3.0678    2.4721 H   0  0  0  0  0  0  0  0  0  0  0  0
    3.1900    1.5295    3.0896 H   0  0  0  0  0  0  0  0  0  0  0  0
    4.4612    1.8951    4.2418 H   0  0  0  0  0  0  0  0  0  0  0  0
    4.6390    0.0979    1.7899 H   0  0  0  0  0  0  0  0  0  0  0  0
    4.6188   -0.3893    3.4680 H   0  0  0  0  0  0  0  0  0  0  0  0
    6.8683    1.1817    2.1239 H   0  0  0  0  0  0  0  0  0  0  0  0
    6.8654   -0.5383    2.4844 H   0  0  0  0  0  0  0  0  0  0  0  0
    6.6619   -0.0262    4.9166 H   0  0  0  0  0  0  0  0  0  0  0  0
    6.7390    1.6968    4.5551 H   0  0  0  0  0  0  0  0  0  0  0  0
    8.9829    1.4043    3.5446 H   0  0  0  0  0  0  0  0  0  0  0  0
    8.9171   -0.3247    3.8816 H   0  0  0  0  0  0  0  0  0  0  0  0
    8.7670    0.1442    6.3141 H   0  0  0  0  0  0  0  0  0  0  0  0
    8.7991    1.8763    5.9915 H   0  0  0  0  0  0  0  0  0  0  0  0
   11.0559    1.6528    4.9743 H   0  0  0  0  0  0  0  0  0  0  0  0
   11.0261   -0.0833    5.2786 H   0  0  0  0  0  0  0  0  0  0  0  0
   10.8674    0.3395    7.7216 H   0  0  0  0  0  0  0  0  0  0  0  0
   10.8701    2.0774    7.4273 H   0  0  0  0  0  0  0  0  0  0  0  0
   13.1281    1.9027    6.3990 H   0  0  0  0  0  0  0  0  0  0  0  0
   13.1268    0.1634    6.6874 H   0  0  0  0  0  0  0  0  0  0  0  0
   12.9728    2.3092    8.8585 H   0  0  0  0  0  0  0  0  0  0  0  0
   14.4008    1.3536    8.4569 H   0  0  0  0  0  0  0  0  0  0  0  0
   12.9779    0.5694    9.1449 H   0  0  0  0  0  0  0  0  0  0  0  0
  1  2  1  0  0  0  0
  2  3  1  0  0  0  0
  3  4  1  0  0  0  0
  4  5  1  0  0  0  0
  5  6  1  0  0  0  0
  6  7  1  0  0  0  0
  7  8  1  0  0  0  0
  8  9  1  0  0  0  0
  9 10  1  0  0  0  0
 10 11  1  0  0  0  0
 11 12  1  0  0  0  0
 12 13  1  0  0  0  0
  1 15  1  0  0  0  0
  1 16  1  0  0  0  0
  1 17  1  0  0  0  0
  2 18  1  0  0  0  0
  2 19  1  0  0  0  0
  3 20  1  0  0  0  0
  3 21  1  0  0  0  0
  4 22  1  0  0  0  0
  4 23  1  0  0  0  0
  5 24  1  0  0  0  0
  5 25  1  0  0  0  0
  6 26  1  0  0  0  0
  6 27  1  0  0  0  0
  7 28  1  0  0  0  0
  7 29  1  0  0  0  0
  8 30  1  0  0  0  0
  8 31  1  0  0  0  0
  9 32  1  0  0  0  0
  9 33  1  0  0  0  0
 10 34  1  0  0  0  0
 10 35  1  0  0  0  0
 11 36  1  0  0  0  0
 11 37  1  0  0  0  0
 12 38  1  0  0  0  0
 12 39  1  0  0  0  0
 13 40  1  0  0  0  0
 13 41  1  0  0  0  0
 13 42  1  0  0  0  0
M  END
