 xtb: 6.5.1 (fef0646)
          01242310033D

 18 16  0     0  0            999 V2000
    0.0254    1.4423   -0.8875 N   0  0  0  0  0  0  0  0  0  0  0  0
    1.0774    1.1961    0.1361 C   0  0  0  0  0  0  0  0  0  0  0  0
    1.3763   -0.2965    0.3387 C   0  0  0  0  0  0  0  0  0  0  0  0
    1.9538   -0.9291   -0.9279 C   0  0  0  0  0  0  0  0  0  0  0  0
    2.3148   -0.5061    1.5289 C   0  0  0  0  0  0  0  0  0  0  0  0
   -2.7555   -0.4483   -0.0085 Cl  0  0  0  0  0  0  0  0  0  0  0  0
   -0.8371    0.9191   -0.6564 H   0  0  0  0  0  0  0  0  0  0  0  0
    0.3289    1.1338   -1.8235 H   0  0  0  0  0  0  0  0  0  0  0  0
   -0.2245    2.4459   -0.9581 H   0  0  0  0  0  0  0  0  0  0  0  0
    0.7674    1.6388    1.0905 H   0  0  0  0  0  0  0  0  0  0  0  0
    2.0004    1.7163   -0.1434 H   0  0  0  0  0  0  0  0  0  0  0  0
    0.4174   -0.7951    0.5635 H   0  0  0  0  0  0  0  0  0  0  0  0
    2.8813   -0.4324   -1.2178 H   0  0  0  0  0  0  0  0  0  0  0  0
    1.2639   -0.8582   -1.7705 H   0  0  0  0  0  0  0  0  0  0  0  0
    2.1820   -1.9864   -0.7766 H   0  0  0  0  0  0  0  0  0  0  0  0
    3.2751   -0.0191    1.3519 H   0  0  0  0  0  0  0  0  0  0  0  0
    2.5114   -1.5661    1.7026 H   0  0  0  0  0  0  0  0  0  0  0  0
    1.8986   -0.0880    2.4479 H   0  0  0  0  0  0  0  0  0  0  0  0
  1  2  1  0  0  0  0
  2  3  1  0  0  0  0
  3  4  1  0  0  0  0
  3  5  1  0  0  0  0
  1  7  1  0  0  0  0
  1  8  1  0  0  0  0
  1  9  1  0  0  0  0
  2 10  1  0  0  0  0
  2 11  1  0  0  0  0
  3 12  1  0  0  0  0
  4 13  1  0  0  0  0
  4 14  1  0  0  0  0
  4 15  1  0  0  0  0
  5 16  1  0  0  0  0
  5 17  1  0  0  0  0
  5 18  1  0  0  0  0
M  END
