25
 xtb: 6.5.1 (fef0646)
N            2.63924783292703       -0.79506270920191        0.83169394785130
C            2.52544106471515        0.51818597737412        0.13767099499454
C            1.51935450327163        0.46291268825340       -1.01264742649877
C            0.12197409304257        0.20408627328669       -0.52563188298232
C           -0.36138083813058       -1.03557862959349       -0.50808441238878
C           -1.73271875972258       -1.40738478792863       -0.03625980766098
C           -2.66658392955231       -0.19502006305094        0.11105353894530
C           -1.93386482904477        0.98524268924384        0.76205782434482
C           -0.68712603739869        1.37983438098047       -0.04800008044212
H            3.27876185475882       -0.69712136708634        1.68634069998181
H            3.08209075295042       -1.50472658593331        0.22524792343718
H            1.74310209788866       -1.11621443098223        1.15692374276765
H            3.52133753112201        0.81655216488330       -0.25794157108083
H            2.25231330869250        1.29341788540373        0.84505452354375
H            1.79873710846615       -0.31920958822923       -1.71737226883047
H            1.52183588387710        1.39356710378509       -1.57190587467851
H            0.25341329468611       -1.82852469033873       -0.89045036690811
H           -1.66832340602683       -1.91991931952894        0.91748836157484
H           -2.18221982400385       -2.13909801359639       -0.73944767208884
H           -3.57826050891498       -0.45832139975667        0.66261746611716
H           -3.03173804212419        0.11386722002514       -0.89606749973311
H           -1.66239993296829        0.70354332623256        1.77785205297569
H           -2.62209889209023        1.84297245780552        0.86563316038893
H           -0.04970961482683        2.02769621565734        0.56936342853195
H           -0.97991021042335        1.97564669957710       -0.90699788383751
