 xtb: 6.5.1 (fef0646)
          01242316583D

 13 11  0     0  0            999 V2000
   -0.1742   -1.8547   -0.0290 N   0  0  0  0  0  0  0  0  0  0  0  0
    1.0197   -1.0619   -0.4362 C   0  0  0  0  0  0  0  0  0  0  0  0
    1.2775    0.1237    0.4900 C   0  0  0  0  0  0  0  0  0  0  0  0
    2.3996    0.9050    0.1231 C   0  0  0  0  0  0  0  0  0  0  0  0
    3.3180    1.5354   -0.1871 N   0  0  0  0  0  0  0  0  0  0  0  0
   -2.9234    0.3653    0.0159 Cl  0  0  0  0  0  0  0  0  0  0  0  0
   -0.3568   -2.6368   -0.6752 H   0  0  0  0  0  0  0  0  0  0  0  0
   -1.0119   -1.2551   -0.0130 H   0  0  0  0  0  0  0  0  0  0  0  0
   -0.0537   -2.2422    0.9145 H   0  0  0  0  0  0  0  0  0  0  0  0
    0.8904   -0.7016   -1.4635 H   0  0  0  0  0  0  0  0  0  0  0  0
    1.9040   -1.7092   -0.4615 H   0  0  0  0  0  0  0  0  0  0  0  0
    1.4097   -0.2361    1.5166 H   0  0  0  0  0  0  0  0  0  0  0  0
    0.3882    0.7635    0.5193 H   0  0  0  0  0  0  0  0  0  0  0  0
  1  2  1  0  0  0  0
  2  3  1  0  0  0  0
  3  4  1  0  0  0  0
  4  5  3  0  0  0  0
  1  7  1  0  0  0  0
  1  8  1  0  0  0  0
  1  9  1  0  0  0  0
  2 10  1  0  0  0  0
  2 11  1  0  0  0  0
  3 12  1  0  0  0  0
  3 13  1  0  0  0  0
M  END
