 xtb: 6.5.1 (fef0646)
          01232319203D

 50 53  0     0  0            999 V2000
    2.0250    1.1968    1.5994 N   0  0  0  0  0  0  0  0  0  0  0  0
    3.1673    1.2241    0.6969 C   0  0  0  0  0  0  0  0  0  0  0  0
    4.1010    2.4299    0.9125 C   0  0  0  0  0  0  0  0  0  0  0  0
    5.2509    2.3911   -0.0317 C   0  0  0  0  0  0  0  0  0  0  0  0
    5.4509    3.1347   -1.1554 C   0  0  0  0  0  0  0  0  0  0  0  0
    6.6334    2.8061   -1.8414 C   0  0  0  0  0  0  0  0  0  0  0  0
    7.3441    1.7986   -1.2433 C   0  0  0  0  0  0  0  0  0  0  0  0
    8.5760    1.2170   -1.6597 C   0  0  0  0  0  0  0  0  0  0  0  0
    9.2953    0.2236   -1.0424 C   0  0  0  0  0  0  0  0  0  0  0  0
   10.4778   -0.1299   -1.7114 C   0  0  0  0  0  0  0  0  0  0  0  0
   11.4090   -1.1554   -1.1504 C   0  0  0  0  0  0  0  0  0  0  0  0
   10.6682    0.6070   -2.8674 C   0  0  0  0  0  0  0  0  0  0  0  0
   11.7183    0.5520   -3.8501 C   0  0  0  0  0  0  0  0  0  0  0  0
   12.5429   -0.5399   -4.0658 C   0  0  0  0  0  0  0  0  0  0  0  0
   13.5511   -0.5574   -5.0349 C   0  0  0  0  0  0  0  0  0  0  0  0
   13.8095    0.5078   -5.8790 C   0  0  0  0  0  0  0  0  0  0  0  0
   14.8390    0.5099   -6.8898 C   0  0  0  0  0  0  0  0  0  0  0  0
   15.3694   -0.5351   -7.6143 C   0  0  0  0  0  0  0  0  0  0  0  0
   14.9285   -1.9617   -7.5552 C   0  0  0  0  0  0  0  0  0  0  0  0
   16.3790   -0.1039   -8.5052 C   0  0  0  0  0  0  0  0  0  0  0  0
   16.6068    1.2337   -8.4545 C   0  0  0  0  0  0  0  0  0  0  0  0
   15.5779    2.0237   -7.3347 S   0  0  0  0  0  0  0  0  0  0  0  0
   12.9897    1.6502   -5.6919 C   0  0  0  0  0  0  0  0  0  0  0  0
   13.0405    2.7905   -6.3766 N   0  0  0  0  0  0  0  0  0  0  0  0
   11.9044    3.7843   -5.8268 S   0  0  0  0  0  0  0  0  0  0  0  0
   11.2873    2.8198   -4.6963 N   0  0  0  0  0  0  0  0  0  0  0  0
   11.9502    1.6665   -4.7002 C   0  0  0  0  0  0  0  0  0  0  0  0
    9.3839    1.7633   -3.0951 S   0  0  0  0  0  0  0  0  0  0  0  0
    6.5351    1.2470    0.1985 S   0  0  0  0  0  0  0  0  0  0  0  0
    0.2871   -1.1213    1.0374 Cl  0  0  0  0  0  0  0  0  0  0  0  0
    1.0947   -0.0610    1.2903 H   0  0  0  0  0  0  0  0  0  0  0  0
    1.4563    2.0301    1.4892 H   0  0  0  0  0  0  0  0  0  0  0  0
    2.3291    1.1401    2.5659 H   0  0  0  0  0  0  0  0  0  0  0  0
    2.7860    1.2366   -0.3264 H   0  0  0  0  0  0  0  0  0  0  0  0
    3.7310    0.2997    0.8400 H   0  0  0  0  0  0  0  0  0  0  0  0
    4.4658    2.4153    1.9438 H   0  0  0  0  0  0  0  0  0  0  0  0
    3.5429    3.3568    0.7555 H   0  0  0  0  0  0  0  0  0  0  0  0
    4.7717    3.9033   -1.4798 H   0  0  0  0  0  0  0  0  0  0  0  0
    6.9634    3.2879   -2.7443 H   0  0  0  0  0  0  0  0  0  0  0  0
    8.9753   -0.2377   -0.1237 H   0  0  0  0  0  0  0  0  0  0  0  0
   11.2193   -1.2729   -0.0857 H   0  0  0  0  0  0  0  0  0  0  0  0
   12.4468   -0.8600   -1.2912 H   0  0  0  0  0  0  0  0  0  0  0  0
   11.2538   -2.1246   -1.6257 H   0  0  0  0  0  0  0  0  0  0  0  0
   12.3991   -1.4343   -3.4845 H   0  0  0  0  0  0  0  0  0  0  0  0
   14.1643   -1.4409   -5.1024 H   0  0  0  0  0  0  0  0  0  0  0  0
   13.8657   -2.0333   -7.3341 H   0  0  0  0  0  0  0  0  0  0  0  0
   15.4804   -2.5078   -6.7890 H   0  0  0  0  0  0  0  0  0  0  0  0
   15.1225   -2.4435   -8.5114 H   0  0  0  0  0  0  0  0  0  0  0  0
   16.9091   -0.7748   -9.1584 H   0  0  0  0  0  0  0  0  0  0  0  0
   17.3141    1.8074   -9.0198 H   0  0  0  0  0  0  0  0  0  0  0  0
  1  2  1  0  0  0  0
  2  3  1  0  0  0  0
  3  4  1  0  0  0  0
  4  5  2  0  0  0  0
  5  6  4  0  0  0  0
  6  7  2  0  0  0  0
  7  8  1  0  0  0  0
  8  9  4  0  0  0  0
  9 10  4  0  0  0  0
 10 11  1  0  0  0  0
 10 12  4  0  0  0  0
 12 13  1  0  0  0  0
 13 14  4  0  0  0  0
 14 15  4  0  0  0  0
 15 16  4  0  0  0  0
 16 17  1  0  0  0  0
 17 18  4  0  0  0  0
 18 19  1  0  0  0  0
 18 20  4  0  0  0  0
 20 21  2  0  0  0  0
 17 22  1  0  0  0  0
 21 22  1  0  0  0  0
 16 23  1  0  0  0  0
 23 24  4  0  0  0  0
 24 25  2  0  0  0  0
 25 26  2  0  0  0  0
 13 27  1  0  0  0  0
 23 27  1  0  0  0  0
 26 27  4  0  0  0  0
  8 28  1  0  0  0  0
 12 28  1  0  0  0  0
  4 29  1  0  0  0  0
  7 29  1  0  0  0  0
 30 31  1  0  0  0  0
  1 32  1  0  0  0  0
  1 33  1  0  0  0  0
  2 34  1  0  0  0  0
  2 35  1  0  0  0  0
  3 36  1  0  0  0  0
  3 37  1  0  0  0  0
  5 38  1  0  0  0  0
  6 39  1  0  0  0  0
  9 40  1  0  0  0  0
 11 41  1  0  0  0  0
 11 42  1  0  0  0  0
 11 43  1  0  0  0  0
 14 44  1  0  0  0  0
 15 45  1  0  0  0  0
 19 46  1  0  0  0  0
 19 47  1  0  0  0  0
 19 48  1  0  0  0  0
 20 49  1  0  0  0  0
 21 50  1  0  0  0  0
M  END
