 xtb: 6.5.1 (fef0646)
          01242310093D

 26 26  0     0  0            999 V2000
   -3.3904    0.1651    1.5619 N   0  0  0  0  0  0  0  0  0  0  0  0
   -3.6853    1.3821    0.7586 C   0  0  0  0  0  0  0  0  0  0  0  0
   -2.9071    1.3873   -0.5544 C   0  0  0  0  0  0  0  0  0  0  0  0
   -1.4393    1.2673   -0.3460 C   0  0  0  0  0  0  0  0  0  0  0  0
   -0.5969    2.3017   -0.0909 C   0  0  0  0  0  0  0  0  0  0  0  0
    0.7562    1.9057    0.0818 C   0  0  0  0  0  0  0  0  0  0  0  0
    0.9527    0.5602   -0.0393 C   0  0  0  0  0  0  0  0  0  0  0  0
    2.2239   -0.1158    0.0844 C   0  0  0  0  0  0  0  0  0  0  0  0
    2.4224   -1.4619   -0.0416 C   0  0  0  0  0  0  0  0  0  0  0  0
    3.7779   -1.8578    0.1263 C   0  0  0  0  0  0  0  0  0  0  0  0
    4.6102   -0.8209    0.3795 C   0  0  0  0  0  0  0  0  0  0  0  0
    3.7440    0.6711    0.4180 S   0  0  0  0  0  0  0  0  0  0  0  0
   -0.5631   -0.2336   -0.3672 S   0  0  0  0  0  0  0  0  0  0  0  0
   -3.2548   -2.1755   -0.9393 Cl  0  0  0  0  0  0  0  0  0  0  0  0
   -3.5047   -0.6797    0.9723 H   0  0  0  0  0  0  0  0  0  0  0  0
   -3.9991    0.0724    2.3917 H   0  0  0  0  0  0  0  0  0  0  0  0
   -2.4098    0.1678    1.8826 H   0  0  0  0  0  0  0  0  0  0  0  0
   -3.4351    2.2744    1.3451 H   0  0  0  0  0  0  0  0  0  0  0  0
   -4.7633    1.4453    0.5630 H   0  0  0  0  0  0  0  0  0  0  0  0
   -3.1205    2.2960   -1.1306 H   0  0  0  0  0  0  0  0  0  0  0  0
   -3.2390    0.5525   -1.1822 H   0  0  0  0  0  0  0  0  0  0  0  0
   -0.9297    3.3267   -0.0244 H   0  0  0  0  0  0  0  0  0  0  0  0
    1.5596    2.5965    0.2874 H   0  0  0  0  0  0  0  0  0  0  0  0
    1.6193   -2.1524   -0.2501 H   0  0  0  0  0  0  0  0  0  0  0  0
    4.1069   -2.8852    0.0573 H   0  0  0  0  0  0  0  0  0  0  0  0
    5.6704   -0.8969    0.5375 H   0  0  0  0  0  0  0  0  0  0  0  0
  1  2  1  0  0  0  0
  2  3  1  0  0  0  0
  3  4  1  0  0  0  0
  4  5  2  0  0  0  0
  5  6  4  0  0  0  0
  6  7  2  0  0  0  0
  7  8  1  0  0  0  0
  8  9  2  0  0  0  0
  9 10  4  0  0  0  0
 10 11  2  0  0  0  0
  8 12  1  0  0  0  0
 11 12  1  0  0  0  0
  4 13  1  0  0  0  0
  7 13  1  0  0  0  0
  1 15  1  0  0  0  0
  1 16  1  0  0  0  0
  1 17  1  0  0  0  0
  2 18  1  0  0  0  0
  2 19  1  0  0  0  0
  3 20  1  0  0  0  0
  3 21  1  0  0  0  0
  5 22  1  0  0  0  0
  6 23  1  0  0  0  0
  9 24  1  0  0  0  0
 10 25  1  0  0  0  0
 11 26  1  0  0  0  0
M  END
