16
 xtb: 6.5.1 (fef0646)
N            0.59543039730436       -1.10048764860315        0.83984363169186
C           -0.61203842437047       -0.41006324475577        0.49123825976319
C           -0.78638005302862        0.91196432983275        0.86256825901296
C           -1.93853296514134        1.59224191928739        0.51754643605460
C           -2.92751211696087        0.95318612553780       -0.20543829141343
C           -2.75938505649767       -0.36397727354018       -0.58677721595599
C           -1.60551120659499       -1.04120485464350       -0.24175575277789
Cl           3.62806391301445       -0.08428972162240       -0.71736551650700
H            0.89844742506870       -1.00217797906010        1.79399098560116
H            1.44306535257549       -0.76831997355938        0.26627946650052
H            0.58885291231865       -2.11645656752575        0.63827471434724
H            0.02417731883436        1.41241182201991        1.37952303749412
H           -2.04123048841848        2.62734192226325        0.79438154620667
H           -3.82688557231885        1.47910510006995       -0.45219176672584
H           -3.54243675739321       -0.87480826566806       -1.11293005827296
H           -1.47239489014222       -2.07488686992694       -0.52224178283338
