 xtb: 6.5.1 (fef0646)
          01242310033D

 16 15  0     0  0            999 V2000
    0.6287   -1.0959    0.7905 N   0  0  0  0  0  0  0  0  0  0  0  0
   -0.5872   -0.4084    0.4643 C   0  0  0  0  0  0  0  0  0  0  0  0
   -0.7523    0.9187    0.8230 C   0  0  0  0  0  0  0  0  0  0  0  0
   -1.9121    1.5964    0.4991 C   0  0  0  0  0  0  0  0  0  0  0  0
   -2.9197    0.9504   -0.1901 C   0  0  0  0  0  0  0  0  0  0  0  0
   -2.7639   -0.3726   -0.5546 C   0  0  0  0  0  0  0  0  0  0  0  0
   -1.6025   -1.0472   -0.2292 C   0  0  0  0  0  0  0  0  0  0  0  0
    3.5457   -0.0843   -0.6657 Cl  0  0  0  0  0  0  0  0  0  0  0  0
    0.8750   -1.0577    1.7913 H   0  0  0  0  0  0  0  0  0  0  0  0
    1.4645   -0.7259    0.3004 H   0  0  0  0  0  0  0  0  0  0  0  0
    0.6212   -2.1017    0.5654 H   0  0  0  0  0  0  0  0  0  0  0  0
    0.0393    1.4167    1.3581 H   0  0  0  0  0  0  0  0  0  0  0  0
   -2.0301    2.6303    0.7844 H   0  0  0  0  0  0  0  0  0  0  0  0
   -3.8260    1.4780   -0.4436 H   0  0  0  0  0  0  0  0  0  0  0  0
   -3.5488   -0.8797   -1.0940 H   0  0  0  0  0  0  0  0  0  0  0  0
   -1.4755   -2.0786   -0.5134 H   0  0  0  0  0  0  0  0  0  0  0  0
  1  2  1  0  0  0  0
  2  3  4  0  0  0  0
  3  4  4  0  0  0  0
  4  5  4  0  0  0  0
  5  6  4  0  0  0  0
  2  7  4  0  0  0  0
  6  7  4  0  0  0  0
  1  9  1  0  0  0  0
  1 10  1  0  0  0  0
  1 11  1  0  0  0  0
  3 12  1  0  0  0  0
  4 13  1  0  0  0  0
  5 14  1  0  0  0  0
  6 15  1  0  0  0  0
  7 16  1  0  0  0  0
M  END
