28
0.25
N           -3.17944   1.44350  -0.48693
C           -2.10240   1.84950   0.45604
C           -0.71484   1.34428   0.03771
C           -0.62040  -0.19928   0.05953
C            0.77224  -0.68709  -0.37180
C            1.88693  -0.07077   0.49410
C            3.24426  -0.51884   0.00558
O            4.00823  -1.22136   0.87247
O            3.59322  -0.23905  -1.12106
C            1.79264   1.46689   0.48865
C            0.40055   1.94939   0.92483
Cl          -3.63977  -2.02815  -0.48943
H           -2.96041   1.74315  -1.45045
H           -4.09068   1.85659  -0.23217
H           -3.30354   0.41389  -0.50305
H           -2.33186   1.48451   1.46319
H           -2.08257   2.94262   0.53505
H           -0.53278   1.67172  -0.99785
H           -1.39635  -0.63894  -0.57789
H           -0.83769  -0.55232   1.07376
H            0.95850  -0.41427  -1.41676
H            0.83728  -1.78216  -0.34192
H            1.77070  -0.42884   1.52762
H            4.84258  -1.43208   0.41015
H            2.01244   1.82120  -0.52470
H            2.57993   1.89346   1.12300
H            0.34248   3.04513   0.91397
H            0.21984   1.65700   1.96524
