 xtb: 6.5.1 (fef0646)
          01242310043D

 28 27  0     0  0            999 V2000
   -3.1794    1.4435   -0.4869 N   0  0  0  0  0  0  0  0  0  0  0  0
   -2.1024    1.8495    0.4560 C   0  0  0  0  0  0  0  0  0  0  0  0
   -0.7148    1.3443    0.0377 C   0  0  0  0  0  0  0  0  0  0  0  0
   -0.6204   -0.1993    0.0595 C   0  0  0  0  0  0  0  0  0  0  0  0
    0.7722   -0.6871   -0.3718 C   0  0  0  0  0  0  0  0  0  0  0  0
    1.8869   -0.0708    0.4941 C   0  0  0  0  0  0  0  0  0  0  0  0
    3.2443   -0.5189    0.0056 C   0  0  0  0  0  0  0  0  0  0  0  0
    4.0082   -1.2214    0.8725 O   0  0  0  0  0  0  0  0  0  0  0  0
    3.5932   -0.2391   -1.1211 O   0  0  0  0  0  0  0  0  0  0  0  0
    1.7926    1.4669    0.4886 C   0  0  0  0  0  0  0  0  0  0  0  0
    0.4006    1.9494    0.9248 C   0  0  0  0  0  0  0  0  0  0  0  0
   -3.6398   -2.0281   -0.4894 Cl  0  0  0  0  0  0  0  0  0  0  0  0
   -2.9604    1.7432   -1.4504 H   0  0  0  0  0  0  0  0  0  0  0  0
   -4.0907    1.8566   -0.2322 H   0  0  0  0  0  0  0  0  0  0  0  0
   -3.3035    0.4139   -0.5030 H   0  0  0  0  0  0  0  0  0  0  0  0
   -2.3318    1.4845    1.4632 H   0  0  0  0  0  0  0  0  0  0  0  0
   -2.0826    2.9426    0.5351 H   0  0  0  0  0  0  0  0  0  0  0  0
   -0.5328    1.6717   -0.9979 H   0  0  0  0  0  0  0  0  0  0  0  0
   -1.3964   -0.6389   -0.5779 H   0  0  0  0  0  0  0  0  0  0  0  0
   -0.8377   -0.5523    1.0738 H   0  0  0  0  0  0  0  0  0  0  0  0
    0.9585   -0.4143   -1.4168 H   0  0  0  0  0  0  0  0  0  0  0  0
    0.8373   -1.7822   -0.3419 H   0  0  0  0  0  0  0  0  0  0  0  0
    1.7707   -0.4288    1.5276 H   0  0  0  0  0  0  0  0  0  0  0  0
    4.8426   -1.4321    0.4101 H   0  0  0  0  0  0  0  0  0  0  0  0
    2.0124    1.8212   -0.5247 H   0  0  0  0  0  0  0  0  0  0  0  0
    2.5799    1.8934    1.1230 H   0  0  0  0  0  0  0  0  0  0  0  0
    0.3425    3.0451    0.9140 H   0  0  0  0  0  0  0  0  0  0  0  0
    0.2199    1.6570    1.9652 H   0  0  0  0  0  0  0  0  0  0  0  0
  1  2  1  0  0  0  0
  2  3  1  0  0  0  0
  3  4  1  0  0  0  0
  4  5  1  0  0  0  0
  5  6  1  0  0  0  0
  6  7  1  0  0  0  0
  7  8  1  0  0  0  0
  7  9  2  0  0  0  0
  6 10  1  0  0  0  0
  3 11  1  0  0  0  0
 10 11  1  0  0  0  0
  1 13  1  0  0  0  0
  1 14  1  0  0  0  0
  1 15  1  0  0  0  0
  2 16  1  0  0  0  0
  2 17  1  0  0  0  0
  3 18  1  0  0  0  0
  4 19  1  0  0  0  0
  4 20  1  0  0  0  0
  5 21  1  0  0  0  0
  5 22  1  0  0  0  0
  6 23  1  0  0  0  0
  8 24  1  0  0  0  0
 10 25  1  0  0  0  0
 10 26  1  0  0  0  0
 11 27  1  0  0  0  0
 11 28  1  0  0  0  0
M  END
