15

N          1.21659        0.14423       -0.26597
C          2.67354        0.03619       -0.23636
C          3.17430        0.20039        1.18953
C          4.69141        0.16385        1.25217
Cl        -0.68935       -0.49672        1.74190
H          0.74335       -0.11303       -1.13635
H          0.83794        1.04638        0.05416
H          0.73947       -0.45905        0.46448
H          3.06152        0.81665       -0.89835
H          2.93340       -0.94369       -0.64541
H          2.77640       -0.60124        1.82187
H          2.82088        1.14974        1.60975
H          5.07871       -0.78599        0.86636
H          5.03098        0.27114        2.28800
H          5.13057        0.97821        0.66465
