 xtb: 6.5.1 (fef0646)
          01232313503D

 15 13  0     0  0            999 V2000
    1.1796    0.3478   -0.2762 N   0  0  0  0  0  0  0  0  0  0  0  0
    2.6221    0.1109   -0.2336 C   0  0  0  0  0  0  0  0  0  0  0  0
    3.1606    0.3994    1.1646 C   0  0  0  0  0  0  0  0  0  0  0  0
    4.6448    0.0734    1.2685 C   0  0  0  0  0  0  0  0  0  0  0  0
   -0.2058   -1.4153    1.6135 Cl  0  0  0  0  0  0  0  0  0  0  0  0
    0.8008    0.1567   -1.1973 H   0  0  0  0  0  0  0  0  0  0  0  0
    0.9655    1.3082   -0.0277 H   0  0  0  0  0  0  0  0  0  0  0  0
    0.4541   -0.5900    0.7370 H   0  0  0  0  0  0  0  0  0  0  0  0
    3.1621    0.7239   -0.9698 H   0  0  0  0  0  0  0  0  0  0  0  0
    2.7883   -0.9403   -0.4801 H   0  0  0  0  0  0  0  0  0  0  0  0
    2.5979   -0.1962    1.8836 H   0  0  0  0  0  0  0  0  0  0  0  0
    3.0003    1.4539    1.4014 H   0  0  0  0  0  0  0  0  0  0  0  0
    4.8178   -0.9812    1.0697 H   0  0  0  0  0  0  0  0  0  0  0  0
    5.0128    0.2991    2.2657 H   0  0  0  0  0  0  0  0  0  0  0  0
    5.2188    0.6567    0.5512 H   0  0  0  0  0  0  0  0  0  0  0  0
  1  2  1  0  0  0  0
  2  3  1  0  0  0  0
  3  4  1  0  0  0  0
  1  6  1  0  0  0  0
  1  7  1  0  0  0  0
  5  8  1  0  0  0  0
  2  9  1  0  0  0  0
  2 10  1  0  0  0  0
  3 11  1  0  0  0  0
  3 12  1  0  0  0  0
  4 13  1  0  0  0  0
  4 14  1  0  0  0  0
  4 15  1  0  0  0  0
M  END
