25
 xtb: 6.5.1 (fef0646)
N           -1.40938498032025       -1.80532843819772        0.10983665431045
C           -0.56359218555923       -1.60093577616843        1.32913463353606
C            0.63420146562960       -0.66487850960834        1.09925387824717
C            0.18960580992938        0.76198549037165        0.70809910442011
C            1.39495713390904        1.70484699298378        0.55328247569218
C            2.39188609756506        1.15380407961082       -0.48225952247823
C            2.83694443486568       -0.27441721728626       -0.11746478591038
C            1.62359189369864       -1.20799029171484        0.04337390353965
Cl          -2.64758345439857        0.84100496712817       -1.23006573253920
H           -2.15471207007859       -2.51715050482283        0.36338543756970
H           -0.80890097509752       -2.33703021736569       -0.58980956249723
H           -1.75990385411148       -1.01624114409520       -0.24226491029361
H           -0.15379898244275       -2.57831467252885        1.75457197499221
H           -1.16820868542664       -1.21352745479115        2.15516934896020
H            1.21293491679176       -0.56997677171313        2.04895502735307
H           -0.54324207240481        1.13013328242083        1.43826839551505
H           -0.35951198018637        0.68419799185111       -0.24015263800633
H            1.88282169257367        1.81616412492737        1.51479718480039
H            1.03995640545641        2.70591455637341        0.27052395742988
H            3.24286309502343        1.82528618161662       -0.58576697492170
H            1.90720573720016        1.13711740598450       -1.47624867742859
H            3.40703283696025       -0.23944551683215        0.81801486195065
H            3.53620922386324       -0.66339443645413       -0.87121702927838
H            1.95072273637635       -2.23122719487701        0.30645259155515
H            1.10937888628163       -1.30243448036889       -0.90960179742376
