 xtb: 6.5.1 (fef0646)
          01242316583D

 25 24  0     0  0            999 V2000
   -1.3475   -1.9233    0.1689 N   0  0  0  0  0  0  0  0  0  0  0  0
   -0.5205   -1.6374    1.3770 C   0  0  0  0  0  0  0  0  0  0  0  0
    0.6498   -0.6773    1.1125 C   0  0  0  0  0  0  0  0  0  0  0  0
    0.1781    0.7382    0.7102 C   0  0  0  0  0  0  0  0  0  0  0  0
    1.3719    1.6952    0.5455 C   0  0  0  0  0  0  0  0  0  0  0  0
    2.3752    1.1515   -0.4880 C   0  0  0  0  0  0  0  0  0  0  0  0
    2.8381   -0.2702   -0.1197 C   0  0  0  0  0  0  0  0  0  0  0  0
    1.6354   -1.2156    0.0508 C   0  0  0  0  0  0  0  0  0  0  0  0
   -2.7096    0.9894   -1.3128 Cl  0  0  0  0  0  0  0  0  0  0  0  0
   -2.1372   -2.5484    0.3846 H   0  0  0  0  0  0  0  0  0  0  0  0
   -0.7885   -2.3754   -0.5673 H   0  0  0  0  0  0  0  0  0  0  0  0
   -1.7407   -1.0555   -0.2330 H   0  0  0  0  0  0  0  0  0  0  0  0
   -0.1338   -2.5813    1.7790 H   0  0  0  0  0  0  0  0  0  0  0  0
   -1.1603   -1.2211    2.1636 H   0  0  0  0  0  0  0  0  0  0  0  0
    1.2206   -0.5666    2.0501 H   0  0  0  0  0  0  0  0  0  0  0  0
   -0.5468    1.1223    1.4391 H   0  0  0  0  0  0  0  0  0  0  0  0
   -0.3641    0.6743   -0.2388 H   0  0  0  0  0  0  0  0  0  0  0  0
    1.8760    1.8172    1.5122 H   0  0  0  0  0  0  0  0  0  0  0  0
    1.0292    2.7011    0.2663 H   0  0  0  0  0  0  0  0  0  0  0  0
    3.2356    1.8274   -0.5883 H   0  0  0  0  0  0  0  0  0  0  0  0
    1.9023    1.1340   -1.4778 H   0  0  0  0  0  0  0  0  0  0  0  0
    3.4086   -0.2355    0.8165 H   0  0  0  0  0  0  0  0  0  0  0  0
    3.5366   -0.6608   -0.8725 H   0  0  0  0  0  0  0  0  0  0  0  0
    1.9577   -2.2324    0.3087 H   0  0  0  0  0  0  0  0  0  0  0  0
    1.1113   -1.3064   -0.9064 H   0  0  0  0  0  0  0  0  0  0  0  0
  1  2  1  0  0  0  0
  2  3  1  0  0  0  0
  3  4  1  0  0  0  0
  4  5  1  0  0  0  0
  5  6  1  0  0  0  0
  6  7  1  0  0  0  0
  3  8  1  0  0  0  0
  7  8  1  0  0  0  0
  1 10  1  0  0  0  0
  1 11  1  0  0  0  0
  1 12  1  0  0  0  0
  2 13  1  0  0  0  0
  2 14  1  0  0  0  0
  3 15  1  0  0  0  0
  4 16  1  0  0  0  0
  4 17  1  0  0  0  0
  5 18  1  0  0  0  0
  5 19  1  0  0  0  0
  6 20  1  0  0  0  0
  6 21  1  0  0  0  0
  7 22  1  0  0  0  0
  7 23  1  0  0  0  0
  8 24  1  0  0  0  0
  8 25  1  0  0  0  0
M  END
