 xtb: 6.5.1 (fef0646)
          01242317113D

 42 40  0     0  0            999 V2000
   -5.0388   -0.9861   -0.4297 N   0  0  0  0  0  0  0  0  0  0  0  0
   -4.3054    0.0529   -1.2110 C   0  0  0  0  0  0  0  0  0  0  0  0
   -3.2567    0.7692   -0.3693 C   0  0  0  0  0  0  0  0  0  0  0  0
   -2.4718    1.8199   -1.1563 C   0  0  0  0  0  0  0  0  0  0  0  0
   -1.4507    2.5822   -0.3064 C   0  0  0  0  0  0  0  0  0  0  0  0
   -0.3009    1.7090    0.1989 C   0  0  0  0  0  0  0  0  0  0  0  0
    0.7215    2.4927    1.0229 C   0  0  0  0  0  0  0  0  0  0  0  0
    1.8538    1.6260    1.5804 C   0  0  0  0  0  0  0  0  0  0  0  0
    2.7793    1.0611    0.5021 C   0  0  0  0  0  0  0  0  0  0  0  0
    3.9354    0.2433    1.0797 C   0  0  0  0  0  0  0  0  0  0  0  0
    4.9218   -0.2577    0.0212 C   0  0  0  0  0  0  0  0  0  0  0  0
    4.3192   -1.2739   -0.9505 C   0  0  0  0  0  0  0  0  0  0  0  0
    5.3349   -1.7972   -1.9558 C   0  0  0  0  0  0  0  0  0  0  0  0
   -2.5133   -3.0495    0.8719 Cl  0  0  0  0  0  0  0  0  0  0  0  0
   -4.3743   -1.6708   -0.0384 H   0  0  0  0  0  0  0  0  0  0  0  0
   -5.7214   -1.4981   -1.0057 H   0  0  0  0  0  0  0  0  0  0  0  0
   -5.5443   -0.5626    0.3631 H   0  0  0  0  0  0  0  0  0  0  0  0
   -5.0147    0.7809   -1.6225 H   0  0  0  0  0  0  0  0  0  0  0  0
   -3.8252   -0.4089   -2.0818 H   0  0  0  0  0  0  0  0  0  0  0  0
   -2.5704    0.0288    0.0564 H   0  0  0  0  0  0  0  0  0  0  0  0
   -3.7388    1.2393    0.4954 H   0  0  0  0  0  0  0  0  0  0  0  0
   -3.1789    2.5235   -1.6139 H   0  0  0  0  0  0  0  0  0  0  0  0
   -1.9614    1.3391   -1.9992 H   0  0  0  0  0  0  0  0  0  0  0  0
   -1.9591    3.0458    0.5474 H   0  0  0  0  0  0  0  0  0  0  0  0
   -1.0351    3.4203   -0.8808 H   0  0  0  0  0  0  0  0  0  0  0  0
    0.1920    1.2290   -0.6540 H   0  0  0  0  0  0  0  0  0  0  0  0
   -0.6945    0.8833    0.8028 H   0  0  0  0  0  0  0  0  0  0  0  0
    0.2001    3.0015    1.8441 H   0  0  0  0  0  0  0  0  0  0  0  0
    1.1439    3.2985    0.4109 H   0  0  0  0  0  0  0  0  0  0  0  0
    1.4304    0.8017    2.1669 H   0  0  0  0  0  0  0  0  0  0  0  0
    2.4524    2.2063    2.2943 H   0  0  0  0  0  0  0  0  0  0  0  0
    3.1782    1.8822   -0.1057 H   0  0  0  0  0  0  0  0  0  0  0  0
    2.2018    0.4442   -0.1949 H   0  0  0  0  0  0  0  0  0  0  0  0
    3.5345   -0.6089    1.6416 H   0  0  0  0  0  0  0  0  0  0  0  0
    4.4644    0.8522    1.8242 H   0  0  0  0  0  0  0  0  0  0  0  0
    5.7968   -0.7074    0.5084 H   0  0  0  0  0  0  0  0  0  0  0  0
    5.3177    0.5952   -0.5432 H   0  0  0  0  0  0  0  0  0  0  0  0
    3.4709   -0.8215   -1.4792 H   0  0  0  0  0  0  0  0  0  0  0  0
    3.8869   -2.1072   -0.3812 H   0  0  0  0  0  0  0  0  0  0  0  0
    6.1715   -2.2872   -1.4541 H   0  0  0  0  0  0  0  0  0  0  0  0
    5.7512   -0.9855   -2.5553 H   0  0  0  0  0  0  0  0  0  0  0  0
    4.8958   -2.5221   -2.6449 H   0  0  0  0  0  0  0  0  0  0  0  0
  1  2  1  0  0  0  0
  2  3  1  0  0  0  0
  3  4  1  0  0  0  0
  4  5  1  0  0  0  0
  5  6  1  0  0  0  0
  6  7  1  0  0  0  0
  7  8  1  0  0  0  0
  8  9  1  0  0  0  0
  9 10  1  0  0  0  0
 10 11  1  0  0  0  0
 11 12  1  0  0  0  0
 12 13  1  0  0  0  0
  1 15  1  0  0  0  0
  1 16  1  0  0  0  0
  1 17  1  0  0  0  0
  2 18  1  0  0  0  0
  2 19  1  0  0  0  0
  3 20  1  0  0  0  0
  3 21  1  0  0  0  0
  4 22  1  0  0  0  0
  4 23  1  0  0  0  0
  5 24  1  0  0  0  0
  5 25  1  0  0  0  0
  6 26  1  0  0  0  0
  6 27  1  0  0  0  0
  7 28  1  0  0  0  0
  7 29  1  0  0  0  0
  8 30  1  0  0  0  0
  8 31  1  0  0  0  0
  9 32  1  0  0  0  0
  9 33  1  0  0  0  0
 10 34  1  0  0  0  0
 10 35  1  0  0  0  0
 11 36  1  0  0  0  0
 11 37  1  0  0  0  0
 12 38  1  0  0  0  0
 12 39  1  0  0  0  0
 13 40  1  0  0  0  0
 13 41  1  0  0  0  0
 13 42  1  0  0  0  0
M  END
