  16

 N          1.2811247295       -0.4423103552        0.2051507737
 C          2.7099678263       -0.2100237170        0.0955421261
 C          3.6751275311       -1.1676964034        0.8294097184
 C          4.3742863886        0.0483538199        1.4571764302
 C          3.2421581277        0.9540748454        0.9461625276
 Cl        -0.1914265916        1.9606119620       -0.6331875805
 H          0.9882513847       -1.2372324138       -0.3521435553
 H          0.5031809249        0.8462305444       -0.2620886342
 H          1.0183946608       -0.6039389349        1.1722881815
 H          2.9481313702       -0.1021737047       -0.9638440393
 H          4.2910905074       -1.8045100282        0.1985816260
 H          3.1640976745       -1.7890181279        1.5639331462
 H          5.3337384473        0.2676844346        0.9953025604
 H          4.5031204659        0.0140946379        2.5364009957
 H          3.5418525072        1.8414978728        0.3968182759
 H          2.5391440456        1.2447555681        1.7231374476
