26
0.124
N           -2.40906  -0.51400  -1.46991
C           -2.27081  -1.84325  -0.81418
C           -1.46178  -1.75955   0.47752
C           -0.10788  -1.14720   0.27384
C            0.08403   0.21686   0.44774
C            1.31405   0.79559   0.22409
C            2.40206   0.02485  -0.19106
O            3.68126   0.52557  -0.44140
C            3.82451   1.91215  -0.23225
C            2.19725  -1.34452  -0.37313
C            0.96592  -1.91831  -0.14846
Cl          -3.07565   1.81407   1.04399
H           -3.05322  -0.53487  -2.27852
H           -1.49477  -0.17426  -1.80558
H           -2.75975   0.18968  -0.79470
H           -1.78959  -2.54070  -1.51023
H           -3.26510  -2.26174  -0.61362
H           -1.34674  -2.75318   0.92744
H           -2.01142  -1.16595   1.21716
H           -0.75268   0.82627   0.74991
H            1.43316   1.85499   0.36778
H            4.85665   2.19103  -0.44850
H            3.60333   2.15677   0.80777
H            3.16251   2.46061  -0.90400
H            3.03084  -1.94387  -0.69764
H            0.82487  -2.97531  -0.30288
