 xtb: 6.5.1 (fef0646)
          01242315103D

 16 15  0     0  0            999 V2000
    1.1949   -0.0031   -0.3955 N   0  0  0  0  0  0  0  0  0  0  0  0
    2.6590    0.1685   -0.3941 C   0  0  0  0  0  0  0  0  0  0  0  0
    3.4416   -0.9361    0.3241 C   0  0  0  0  0  0  0  0  0  0  0  0
    4.2369    0.1456    1.0729 C   0  0  0  0  0  0  0  0  0  0  0  0
    3.1958    1.1826    0.6218 C   0  0  0  0  0  0  0  0  0  0  0  0
    0.1197   -0.6391    2.3996 Cl  0  0  0  0  0  0  0  0  0  0  0  0
    0.9161   -0.7974   -0.9766 H   0  0  0  0  0  0  0  0  0  0  0  0
    0.7213    0.8448   -0.7164 H   0  0  0  0  0  0  0  0  0  0  0  0
    0.8552   -0.2034    0.5816 H   0  0  0  0  0  0  0  0  0  0  0  0
    3.0064    0.3526   -1.4109 H   0  0  0  0  0  0  0  0  0  0  0  0
    4.0115   -1.6222   -0.2954 H   0  0  0  0  0  0  0  0  0  0  0  0
    2.7977   -1.4966    0.9978 H   0  0  0  0  0  0  0  0  0  0  0  0
    5.2208    0.3196    0.6455 H   0  0  0  0  0  0  0  0  0  0  0  0
    4.3332    0.0059    2.1459 H   0  0  0  0  0  0  0  0  0  0  0  0
    3.5783    2.1201    0.2290 H   0  0  0  0  0  0  0  0  0  0  0  0
    2.4655    1.3807    1.4026 H   0  0  0  0  0  0  0  0  0  0  0  0
  1  2  1  0  0  0  0
  2  3  1  0  0  0  0
  3  4  1  0  0  0  0
  2  5  1  0  0  0  0
  4  5  1  0  0  0  0
  1  7  1  0  0  0  0
  1  8  1  0  0  0  0
  1  9  1  0  0  0  0
  2 10  1  0  0  0  0
  3 11  1  0  0  0  0
  3 12  1  0  0  0  0
  4 13  1  0  0  0  0
  4 14  1  0  0  0  0
  5 15  1  0  0  0  0
  5 16  1  0  0  0  0
M  END
