15
 xtb: 6.5.1 (fef0646)
N            0.69165371751285       -1.35831180383059       -0.67799331780895
C            1.59319065835523       -0.96627392777516        0.44120326997540
C            1.66702295857818        0.54590117145779        0.64049461219960
C            2.25404628260769        1.27289237702078       -0.55851870750327
Cl          -2.64193876828307        0.30476759519744        0.14322303850428
H            0.90932701018251       -0.95329219103824       -1.56499272427561
H           -0.33590030217581       -0.89678273146407       -0.46483526557691
H            0.46584734703461       -2.33267958101678       -0.74316534876787
H            2.53362351886033       -1.37318798359806        0.20560506453224
H            1.23004884904971       -1.44227014510688        1.36678812437103
H            2.26585982894915        0.76006040898410        1.53600240022457
H            0.66586489186825        0.96126430648671        0.87157796795628
H            1.62024545573444        1.16550707408236       -1.44216416899497
H            3.23570605975593        0.87565876317600       -0.81157907344907
H            2.36874493684241        2.34579738592633       -0.37473307937316
