15
 xtb: 6.5.1 (fef0646)
N            0.54797532780237       -1.69218641228633       -0.24360181976806
C            1.57104848187311       -0.76486870514835        0.32698180694806
C            1.61568389923342        0.58056388927729       -0.38982633017777
C            2.70731536419309        1.49017882909429        0.15584563454459
Cl          -2.73586396936615        0.28226379462961        0.07858123820219
H           -0.46218443415684       -1.16392028378924       -0.15842662363620
H            0.38705696787618       -2.52954498679788        0.27012233101699
H            0.61626561241439       -1.83231712502533       -1.22527514145870
H            2.49314481701190       -1.26613202309470        0.25697990033225
H            1.35702255660596       -0.59100276879342        1.39440104579976
H            0.63261151942586        1.09521897661245       -0.32387064640803
H            1.75696407421360        0.41862482164498       -1.46655552237874
H            2.54892805314570        1.69468036440615        1.21813180271499
H            2.75346184547005        2.44407709760683       -0.36185698970058
H            3.68320080079757        1.01092846524433        0.06488366234295
