 xtb: 6.5.1 (fef0646)
          02032318243D

 15 13  0     0  0            999 V2000
    0.2159    0.7269    0.1884 N   0  0  0  0  0  0  0  0  0  0  0  0
    1.2348   -0.3549    0.3224 C   0  0  0  0  0  0  0  0  0  0  0  0
    2.6446    0.1845    0.5539 C   0  0  0  0  0  0  0  0  0  0  0  0
    3.1921    0.9538   -0.6388 C   0  0  0  0  0  0  0  0  0  0  0  0
   -2.9933   -0.6848   -0.1667 Cl  0  0  0  0  0  0  0  0  0  0  0  0
    0.4056    1.3224   -0.6329 H   0  0  0  0  0  0  0  0  0  0  0  0
    0.2150    1.3361    1.0182 H   0  0  0  0  0  0  0  0  0  0  0  0
   -0.7374    0.3435    0.0796 H   0  0  0  0  0  0  0  0  0  0  0  0
    1.2235   -0.9833   -0.5761 H   0  0  0  0  0  0  0  0  0  0  0  0
    0.9459   -1.0201    1.1462 H   0  0  0  0  0  0  0  0  0  0  0  0
    3.3227   -0.6436    0.8016 H   0  0  0  0  0  0  0  0  0  0  0  0
    2.6420    0.8267    1.4436 H   0  0  0  0  0  0  0  0  0  0  0  0
    2.5852    1.8324   -0.8624 H   0  0  0  0  0  0  0  0  0  0  0  0
    3.2048    0.3335   -1.5367 H   0  0  0  0  0  0  0  0  0  0  0  0
    4.2133    1.3019   -0.4677 H   0  0  0  0  0  0  0  0  0  0  0  0
  1  2  1  0  0  0  0
  2  3  1  0  0  0  0
  3  4  1  0  0  0  0
  1  6  1  0  0  0  0
  1  7  1  0  0  0  0
  1  8  1  0  0  0  0
  2  9  1  0  0  0  0
  2 10  1  0  0  0  0
  3 11  1  0  0  0  0
  3 12  1  0  0  0  0
  4 13  1  0  0  0  0
  4 14  1  0  0  0  0
  4 15  1  0  0  0  0
M  END
