22
 xtb: 6.5.1 (fef0646)
N           -3.25868089607916        0.19933183098575       -0.47314295422146
C           -3.11063235058918        0.98719786873828        0.78350026228521
C           -2.02293053363945        2.05309123598504        0.67517727791103
C           -0.66109264501057        1.47106051164986        0.43650769777900
C            0.02151328973545        0.84074798426835        1.46796319201278
C            1.26230157553707        0.27146323190573        1.24685879598612
C            1.83657831757495        0.32633692389967       -0.00651623113936
Br           3.54110364293221       -0.44919003495000       -0.29927989621731
C            1.16698712383124        0.94725659285816       -1.04011335964985
C           -0.07681856831229        1.51267032171232       -0.82202710190881
Cl          -5.59735842443747       -2.18124853689109       -0.10764243765063
H           -3.49993021577833        0.84611743052980       -1.26409061155513
H           -3.96779332747339       -0.50905510087310       -0.40830707581543
H           -2.35511587101992       -0.23123910373994       -0.73164757034670
H           -2.87008021200503        0.30790726151841        1.60378536698272
H           -4.06333740210212        1.45483760556723        1.04343060457579
H           -1.98317786191608        2.66550884634379        1.60854103419191
H           -2.25135986562458        2.76692744059100       -0.11192516984237
H           -0.38517796649233        0.85455311561001        2.47057295479405
H            1.83306327899618       -0.16183300730245        2.06290735388266
H            1.59585529547222        0.93206914324264       -2.02366788740270
H           -0.62305429007899        1.94967784558221       -1.63009825369475
