 xtb: 6.5.1 (fef0646)
          02032318583D

 22 21  0     0  0            999 V2000
   -3.2360    0.2378   -0.4868 N   0  0  0  0  0  0  0  0  0  0  0  0
   -3.0963    1.0025    0.7841 C   0  0  0  0  0  0  0  0  0  0  0  0
   -2.0063    2.0684    0.6998 C   0  0  0  0  0  0  0  0  0  0  0  0
   -0.6460    1.4852    0.4559 C   0  0  0  0  0  0  0  0  0  0  0  0
    0.0601    0.8921    1.4924 C   0  0  0  0  0  0  0  0  0  0  0  0
    1.2990    0.3207    1.2647 C   0  0  0  0  0  0  0  0  0  0  0  0
    1.8446    0.3308   -0.0013 C   0  0  0  0  0  0  0  0  0  0  0  0
    3.5481   -0.4557   -0.3133 Br  0  0  0  0  0  0  0  0  0  0  0  0
    1.1500    0.9122   -1.0405 C   0  0  0  0  0  0  0  0  0  0  0  0
   -0.0889    1.4846   -0.8148 C   0  0  0  0  0  0  0  0  0  0  0  0
   -5.6892   -2.2562   -0.1389 Cl  0  0  0  0  0  0  0  0  0  0  0  0
   -3.4922    0.8602   -1.2654 H   0  0  0  0  0  0  0  0  0  0  0  0
   -3.9617   -0.4982   -0.4164 H   0  0  0  0  0  0  0  0  0  0  0  0
   -2.3487   -0.2202   -0.7359 H   0  0  0  0  0  0  0  0  0  0  0  0
   -2.8673    0.3087    1.6013 H   0  0  0  0  0  0  0  0  0  0  0  0
   -4.0592    1.4588    1.0442 H   0  0  0  0  0  0  0  0  0  0  0  0
   -1.9793    2.6654    1.6185 H   0  0  0  0  0  0  0  0  0  0  0  0
   -2.2451    2.7753   -0.1018 H   0  0  0  0  0  0  0  0  0  0  0  0
   -0.3680    0.8785    2.4804 H   0  0  0  0  0  0  0  0  0  0  0  0
    1.8493   -0.1386    2.0693 H   0  0  0  0  0  0  0  0  0  0  0  0
    1.5846    0.9120   -2.0266 H   0  0  0  0  0  0  0  0  0  0  0  0
   -0.6315    1.9338   -1.6290 H   0  0  0  0  0  0  0  0  0  0  0  0
  1  2  1  0  0  0  0
  2  3  1  0  0  0  0
  3  4  1  0  0  0  0
  4  5  4  0  0  0  0
  5  6  4  0  0  0  0
  6  7  4  0  0  0  0
  7  8  1  0  0  0  0
  7  9  4  0  0  0  0
  4 10  4  0  0  0  0
  9 10  4  0  0  0  0
  1 12  1  0  0  0  0
  1 13  1  0  0  0  0
  1 14  1  0  0  0  0
  2 15  1  0  0  0  0
  2 16  1  0  0  0  0
  3 17  1  0  0  0  0
  3 18  1  0  0  0  0
  5 19  1  0  0  0  0
  6 20  1  0  0  0  0
  9 21  1  0  0  0  0
 10 22  1  0  0  0  0
M  END
