19

N          1.12320       -0.20856       -0.30353
C          2.59351       -0.14361       -0.31374
C          3.12792       -0.37169       -1.72370
C          4.62357       -0.28182       -1.74359
C          5.54725       -1.28758       -1.54912
C          6.88746       -0.80836       -1.60556
C          6.94398        0.54514       -1.84807
S          5.38716        1.23059       -2.01368
Cl         0.14290        0.98935        2.12433
H          0.80525        0.12837        0.65759
H          0.69798       -1.13276       -0.38488
H          0.65030        0.47641       -0.89978
H          2.95083       -0.90607        0.38703
H          2.87307        0.84469        0.06485
H          2.69114        0.35973       -2.41530
H          2.81908       -1.36049       -2.08621
H          5.28232       -2.32232       -1.36352
H          7.76916       -1.42499       -1.47156
H          7.82484        1.16639       -1.93684
