28

N          1.06415        0.05701        0.18783
C          2.48319       -0.26013        0.36943
C          2.91744       -1.43289       -0.52154
C          2.14830       -2.72605       -0.19679
C          2.69149       -3.94421       -0.94590
C          4.19008       -4.11373       -0.70943
C          4.67774       -5.41270       -1.32938
O          5.04841       -5.34887       -2.62256
O          4.68941       -6.47048       -0.71085
C          4.94875       -2.85701       -1.13649
C          4.43900       -1.63336       -0.37492
Cl         0.57341        1.65865       -2.13623
H          0.77683        0.91647        0.67754
H          0.37215       -0.67412        0.34248
H          0.90897        0.40268       -0.80509
H          2.62064       -0.48774        1.43282
H          3.04645        0.64745        0.13350
H          2.71498       -1.17582       -1.56997
H          1.08856       -2.60997       -0.44934
H          2.19758       -2.92209        0.88265
H          2.48867       -3.83789       -2.01890
H          2.15077       -4.83958       -0.61698
H          4.36080       -4.23627        0.37023
H          4.95838       -4.48318       -3.05592
H          4.82951       -2.66885       -2.20959
H          6.02253       -2.98467       -0.95597
H          4.96437       -0.74141       -0.73984
H          4.69864       -1.73969        0.68624
