30
 xtb: 6.5.1 (fef0646)
N           -2.56700675313399        0.12910198250882        0.68985978995141
C           -2.13462285659847        0.96924144906031       -0.46545953454276
C           -0.70388264441567        1.46229389321088       -0.28746017844884
C            0.31865597390466        0.32703405671957       -0.29498516781602
C            1.75404937184435        0.82224651603517       -0.12473821056040
C            2.77891618522413       -0.31067831449896       -0.13512593263414
C            4.21360038834700        0.18677696622338        0.03443460577099
C            5.24459661823057       -0.94196639602075        0.01796392626648
C            6.66968623661053       -0.43697045814917        0.18667738985735
Cl          -6.21737323210322       -0.89772828573980        0.08095263976391
H           -2.57476119047298        0.62033683793419        1.55049026327489
H           -2.07286127339633       -0.74574651870432        0.75131050065872
H           -3.61871414586739       -0.17921588860436        0.53096719499217
H           -2.83799676732641        1.80920290195861       -0.59841960854370
H           -2.22907379045608        0.38980547432636       -1.41074275426412
H           -0.65929553552355        1.98989252908642        0.67501511654129
H           -0.46800397640861        2.17868428072535       -1.04583294316713
H            0.21488752431803       -0.24993252778004       -1.22315572063534
H            0.07477741777527       -0.40802859584918        0.50427541157970
H            1.82110369208247        1.38185120223702        0.81582544238444
H            1.96909015938803        1.53873861912659       -0.91093793568503
H            2.68022499326080       -0.87794373006241       -1.06951008354833
H            2.53287403126666       -1.03480521339828        0.65719158896119
H            4.28669315502905        0.75262529406561        0.97033418876110
H            4.43284928621506        0.91259024296834       -0.75616578085407
H            5.14089529329834       -1.50219686268794       -0.92081893116224
H            4.99405003964495       -1.66301725145071        0.80648247040316
H            6.92803602795736        0.26264754738279       -0.61185473169587
H            7.38851401040018       -1.24607593349396        0.17086783612233
H            6.78029997825681        0.09933529481989        1.13043514434377
