30
 xtb: 6.5.1 (fef0646)
N           -2.10022768783441       -0.02007957609469        1.55429993468827
C           -1.19653423412787        0.79988478068503        0.69227237373723
C           -0.79924550415979        0.06162781052507       -0.58077419538280
C            0.03788715733368        0.90414686782974       -1.54870620101468
C            1.38597927503428        1.36272841573734       -0.98352705646501
C            2.32200074450631        0.20972017062754       -0.61972252200259
C            3.68566261491107        0.68580443390405       -0.11749116001177
C            4.64703013160770       -0.45758174239475        0.22112811892187
C            4.18694050005409       -1.30243603209913        1.40084404304663
Cl          -4.68339095936530       -0.83400205340972       -0.14112378985479
H           -2.30998731871840        0.50971630758502        2.46022160985636
H           -1.57308292340386       -0.87146543987362        1.89365791210960
H           -2.90754665912167       -0.26720319010799        1.10935957279722
H           -0.25122385899900        1.09841763665464        1.26650241904903
H           -1.65508504333481        1.75292096587159        0.46393748939817
H           -1.70582102338428       -0.28010957717532       -1.04341718213511
H           -0.24745043334296       -0.85298054104887       -0.29696437003988
H           -0.54622433921698        1.77316033821413       -1.84736436316403
H            0.20876168608863        0.32610332989274       -2.45987339129033
H            1.24645379125372        2.00230390023225       -0.11521315513062
H            1.89694462444151        2.00422099698919       -1.72628519373767
H            2.46185006694024       -0.45243043611261       -1.48671106396355
H            1.86271786702770       -0.41440280253341        0.14708718828014
H            3.56545563983062        1.32902981549291        0.74868998150540
H            4.14575129845301        1.33612370415286       -0.89368395170912
H            5.66012140239508       -0.04896451102451        0.41494220871516
H            4.78626286370778       -1.09870624540034       -0.66723097256010
H            4.06129085649951       -0.66951886723621        2.28894661872856
H            4.92669656652852       -2.06741981057212        1.65945081159068
H            3.25313799986212       -1.78906064991371        1.20330714085213
