 xtb: 6.5.1 (fef0646)
          01242310103D

 18 16  0     0  0            999 V2000
   -0.3490   -1.2786    1.0710 N   0  0  0  0  0  0  0  0  0  0  0  0
    0.2396   -2.0672   -0.0388 C   0  0  0  0  0  0  0  0  0  0  0  0
    0.7813   -1.1837   -1.1602 C   0  0  0  0  0  0  0  0  0  0  0  0
    2.0163   -0.3640   -0.7701 C   0  0  0  0  0  0  0  0  0  0  0  0
    1.6994    0.8071    0.1171 C   0  0  0  0  0  0  0  0  0  0  0  0
    1.3291    1.9500   -0.5029 O   0  0  0  0  0  0  0  0  0  0  0  0
    1.7516    0.6976    1.3240 O   0  0  0  0  0  0  0  0  0  0  0  0
   -3.0425    0.5265   -0.1286 Cl  0  0  0  0  0  0  0  0  0  0  0  0
   -1.1846   -0.7551    0.7545 H   0  0  0  0  0  0  0  0  0  0  0  0
    0.3492   -0.5756    1.3723 H   0  0  0  0  0  0  0  0  0  0  0  0
   -0.6104   -1.8550    1.8857 H   0  0  0  0  0  0  0  0  0  0  0  0
   -0.5175   -2.7611   -0.4254 H   0  0  0  0  0  0  0  0  0  0  0  0
    1.0478   -2.6983    0.3503 H   0  0  0  0  0  0  0  0  0  0  0  0
   -0.0066   -0.4999   -1.4963 H   0  0  0  0  0  0  0  0  0  0  0  0
    1.0181   -1.8090   -2.0312 H   0  0  0  0  0  0  0  0  0  0  0  0
    2.5147    0.0245   -1.6647 H   0  0  0  0  0  0  0  0  0  0  0  0
    2.7487   -1.0006   -0.2652 H   0  0  0  0  0  0  0  0  0  0  0  0
    1.1608    2.6120    0.1957 H   0  0  0  0  0  0  0  0  0  0  0  0
  1  2  1  0  0  0  0
  2  3  1  0  0  0  0
  3  4  1  0  0  0  0
  4  5  1  0  0  0  0
  5  6  1  0  0  0  0
  5  7  2  0  0  0  0
  1  9  1  0  0  0  0
  1 10  1  0  0  0  0
  1 11  1  0  0  0  0
  2 12  1  0  0  0  0
  2 13  1  0  0  0  0
  3 14  1  0  0  0  0
  3 15  1  0  0  0  0
  4 16  1  0  0  0  0
  4 17  1  0  0  0  0
  6 18  1  0  0  0  0
M  END
