 xtb: 6.5.1 (fef0646)
          01242316583D

 24 24  0     0  0            999 V2000
    2.6211   -0.1910    0.8089 N   0  0  0  0  0  0  0  0  0  0  0  0
    2.0448   -0.2428   -0.5672 C   0  0  0  0  0  0  0  0  0  0  0  0
    0.5151   -0.0979   -0.6196 C   0  0  0  0  0  0  0  0  0  0  0  0
    0.0208    1.2647   -0.0820 C   0  0  0  0  0  0  0  0  0  0  0  0
   -1.5033    1.4083   -0.2484 C   0  0  0  0  0  0  0  0  0  0  0  0
   -2.2494    0.2521    0.4429 C   0  0  0  0  0  0  0  0  0  0  0  0
   -1.7483   -1.1161   -0.0552 C   0  0  0  0  0  0  0  0  0  0  0  0
   -0.2231   -1.2431    0.1109 C   0  0  0  0  0  0  0  0  0  0  0  0
    2.4079    0.7008    1.2694 H   0  0  0  0  0  0  0  0  0  0  0  0
    3.6424   -0.2896    0.7863 H   0  0  0  0  0  0  0  0  0  0  0  0
    2.2516   -0.9464    1.3971 H   0  0  0  0  0  0  0  0  0  0  0  0
    2.3362   -1.1885   -1.0367 H   0  0  0  0  0  0  0  0  0  0  0  0
    2.5048    0.5459   -1.1723 H   0  0  0  0  0  0  0  0  0  0  0  0
    0.2076   -0.1493   -1.6769 H   0  0  0  0  0  0  0  0  0  0  0  0
    0.5528    2.0856   -0.5769 H   0  0  0  0  0  0  0  0  0  0  0  0
    0.2744    1.3430    0.9793 H   0  0  0  0  0  0  0  0  0  0  0  0
   -1.7538    1.4170   -1.3152 H   0  0  0  0  0  0  0  0  0  0  0  0
   -1.8441    2.3764    0.1407 H   0  0  0  0  0  0  0  0  0  0  0  0
   -3.3322    0.3454    0.2890 H   0  0  0  0  0  0  0  0  0  0  0  0
   -2.1008    0.3206    1.5265 H   0  0  0  0  0  0  0  0  0  0  0  0
   -2.0105   -1.2368   -1.1124 H   0  0  0  0  0  0  0  0  0  0  0  0
   -2.2628   -1.9314    0.4695 H   0  0  0  0  0  0  0  0  0  0  0  0
    0.1350   -2.2162   -0.2453 H   0  0  0  0  0  0  0  0  0  0  0  0
    0.0258   -1.2056    1.1755 H   0  0  0  0  0  0  0  0  0  0  0  0
  1  2  1  0  0  0  0
  2  3  1  0  0  0  0
  3  4  1  0  0  0  0
  4  5  1  0  0  0  0
  5  6  1  0  0  0  0
  6  7  1  0  0  0  0
  3  8  1  0  0  0  0
  7  8  1  0  0  0  0
  1  9  1  0  0  0  0
  1 10  1  0  0  0  0
  1 11  1  0  0  0  0
  2 12  1  0  0  0  0
  2 13  1  0  0  0  0
  3 14  1  0  0  0  0
  4 15  1  0  0  0  0
  4 16  1  0  0  0  0
  5 17  1  0  0  0  0
  5 18  1  0  0  0  0
  6 19  1  0  0  0  0
  6 20  1  0  0  0  0
  7 21  1  0  0  0  0
  7 22  1  0  0  0  0
  8 23  1  0  0  0  0
  8 24  1  0  0  0  0
M  CHG  1   1   1
M  END
