19

N          1.17146       -0.20027        0.22497
C          2.62816       -0.17743        0.13596
C          3.05785        0.44985       -1.18252
C          4.57745        0.50930       -1.29445
C          5.02498        1.11655       -2.61585
O          6.44367        1.13195       -2.66149
Cl        -0.83356        0.44419       -1.63722
H          0.74297       -0.67071        1.02286
H          0.69505       -0.59067       -0.62603
H          0.71851        0.73088        0.13745
H          2.96987       -1.21371        0.21783
H          2.99234        0.39300        0.99517
H          2.64594        1.46433       -1.26540
H          2.65532       -0.13088       -2.02034
H          5.00438       -0.49671       -1.19533
H          4.99596        1.09270       -0.46408
H          4.65579        2.14079       -2.73643
H          4.66562        0.51932       -3.46018
H          6.75452        1.81514       -2.04277
