27
2.162
N           -3.10468  -0.88617  -0.55737
C           -2.61683   0.07339   0.47479
C           -1.12167  -0.05955   0.75784
C           -0.21440   0.37689  -0.43120
C            0.61451  -0.80138  -1.01615
C            1.79154  -1.20350  -0.10884
C            2.69671  -0.00102   0.20339
C            1.89132   1.14600   0.83381
C            0.71687   1.56787  -0.06680
H           -2.63486  -0.74577  -1.46345
H           -4.11823  -0.78587  -0.71954
H           -2.93617  -1.86055  -0.26696
H           -3.19114  -0.08275   1.39711
H           -2.84501   1.09790   0.15710
H           -0.90124  -1.09791   1.02783
H           -0.86010   0.52636   1.64693
H           -0.88668   0.73150  -1.23143
H            0.99965  -0.52497  -2.00464
H           -0.04139  -1.66344  -1.18890
H            2.37421  -2.01265  -0.57024
H            1.40933  -1.62301   0.82877
H            3.16797   0.35038  -0.72219
H            3.52688  -0.29898   0.85843
H            2.54432   2.00463   1.04237
H            1.51188   0.82882   1.81190
H            1.11105   2.02026  -0.98429
H            0.13087   2.35812   0.41882
