 xtb: 6.5.1 (fef0646)
          01242310103D

 27 27  0     0  0            999 V2000
   -3.1047   -0.8862   -0.5574 N   0  0  0  0  0  0  0  0  0  0  0  0
   -2.6168    0.0734    0.4748 C   0  0  0  0  0  0  0  0  0  0  0  0
   -1.1217   -0.0595    0.7578 C   0  0  0  0  0  0  0  0  0  0  0  0
   -0.2144    0.3769   -0.4312 C   0  0  0  0  0  0  0  0  0  0  0  0
    0.6145   -0.8014   -1.0162 C   0  0  0  0  0  0  0  0  0  0  0  0
    1.7915   -1.2035   -0.1088 C   0  0  0  0  0  0  0  0  0  0  0  0
    2.6967   -0.0010    0.2034 C   0  0  0  0  0  0  0  0  0  0  0  0
    1.8913    1.1460    0.8338 C   0  0  0  0  0  0  0  0  0  0  0  0
    0.7169    1.5679   -0.0668 C   0  0  0  0  0  0  0  0  0  0  0  0
   -2.6349   -0.7458   -1.4634 H   0  0  0  0  0  0  0  0  0  0  0  0
   -4.1182   -0.7858   -0.7195 H   0  0  0  0  0  0  0  0  0  0  0  0
   -2.9362   -1.8605   -0.2669 H   0  0  0  0  0  0  0  0  0  0  0  0
   -3.1911   -0.0827    1.3971 H   0  0  0  0  0  0  0  0  0  0  0  0
   -2.8450    1.0979    0.1571 H   0  0  0  0  0  0  0  0  0  0  0  0
   -0.9012   -1.0979    1.0278 H   0  0  0  0  0  0  0  0  0  0  0  0
   -0.8601    0.5264    1.6469 H   0  0  0  0  0  0  0  0  0  0  0  0
   -0.8867    0.7315   -1.2314 H   0  0  0  0  0  0  0  0  0  0  0  0
    0.9996   -0.5250   -2.0046 H   0  0  0  0  0  0  0  0  0  0  0  0
   -0.0414   -1.6634   -1.1889 H   0  0  0  0  0  0  0  0  0  0  0  0
    2.3742   -2.0127   -0.5702 H   0  0  0  0  0  0  0  0  0  0  0  0
    1.4093   -1.6230    0.8288 H   0  0  0  0  0  0  0  0  0  0  0  0
    3.1680    0.3504   -0.7222 H   0  0  0  0  0  0  0  0  0  0  0  0
    3.5269   -0.2990    0.8584 H   0  0  0  0  0  0  0  0  0  0  0  0
    2.5443    2.0046    1.0424 H   0  0  0  0  0  0  0  0  0  0  0  0
    1.5119    0.8288    1.8119 H   0  0  0  0  0  0  0  0  0  0  0  0
    1.1111    2.0203   -0.9843 H   0  0  0  0  0  0  0  0  0  0  0  0
    0.1309    2.3581    0.4188 H   0  0  0  0  0  0  0  0  0  0  0  0
  1  2  1  0  0  0  0
  2  3  1  0  0  0  0
  3  4  1  0  0  0  0
  4  5  1  0  0  0  0
  5  6  1  0  0  0  0
  6  7  1  0  0  0  0
  7  8  1  0  0  0  0
  4  9  1  0  0  0  0
  8  9  1  0  0  0  0
  1 10  1  0  0  0  0
  1 11  1  0  0  0  0
  1 12  1  0  0  0  0
  2 13  1  0  0  0  0
  2 14  1  0  0  0  0
  3 15  1  0  0  0  0
  3 16  1  0  0  0  0
  4 17  1  0  0  0  0
  5 18  1  0  0  0  0
  5 19  1  0  0  0  0
  6 20  1  0  0  0  0
  6 21  1  0  0  0  0
  7 22  1  0  0  0  0
  7 23  1  0  0  0  0
  8 24  1  0  0  0  0
  8 25  1  0  0  0  0
  9 26  1  0  0  0  0
  9 27  1  0  0  0  0
M  CHG  1   1   1
M  END
