17
 xtb: 6.5.1 (fef0646)
N           -1.95499035551142       -1.85338070708916        1.02164386526063
C           -2.47816807013292       -0.92119467228739       -0.03578385674658
C           -2.70880416360587        0.50317407630171        0.48817725226254
C           -1.53483813389802        1.47439065525570        0.25620690944725
C           -0.22681024499642        1.10178718276430        0.94974030697783
I            1.05974787784825        0.03058822560646       -0.35782331074309
H           -2.49817483469282       -1.98202342452467        1.77087829587536
H           -0.97654868937005       -1.50493646139112        1.30520505870747
H           -1.71954861324740       -2.78432273886514        0.53881822939617
H           -3.46207334295036       -1.34192805227575       -0.34316719433374
H           -1.89285615940647       -0.88100944600003       -0.94899195765204
H           -2.87844959213461        0.44454431037064        1.59513191435903
H           -3.62299887812528        0.92474796109853        0.09890642666166
H           -1.86171485482122        2.49347951298732        0.55311096620814
H           -1.38321670149184        1.56709995247344       -0.84207089903077
H           -0.35524386357993        0.67657972173350        1.88901521838545
H            0.39647969219918        2.04359775176688        1.07422750134103
