17
 xtb: 6.5.1 (fef0646)
N           -4.09026979157731       -0.89594281143055       -0.07116467927011
C           -3.08896265721574        0.18163466260736       -0.35009507017083
C           -2.09029503820390        0.37583501004160        0.79022346758051
C           -1.10745170972772        1.53608049051145        0.56034264901416
C           -0.10304973162661        1.28575654978763       -0.55170173064394
I            1.31002861525306       -0.24444612233032       -0.02726118643754
H           -3.55162004151404       -1.80868548614665        0.10496018250856
H           -4.67049424870560       -1.05805915822507       -0.86251067075493
H           -4.59213362722739       -0.69312576654031        0.75288977516238
H           -3.58542545159785        1.09071101311538       -0.58562235275670
H           -2.48838553382786       -0.08752174563020       -1.26662213048348
H           -1.52254258505107       -0.51638145746037        1.00580500574371
H           -2.66482686774150        0.58941206941480        1.71073369077202
H           -0.56317192474331        1.78728262083014        1.50259163381427
H           -1.67363556145046        2.47604520676325        0.34547496631028
H            0.55120745723674        2.18816998137258       -0.70540153020522
H           -0.55847095820650        1.06595674797767       -1.48137951301938
