  15

 O         -1.3079515271        0.9116064715       -0.0116821286
 C         -1.3115555595       -0.4909262094       -0.1898515051
 C         -0.0326863813       -1.1250369326        0.3467959432
 C          1.2149133070       -0.5308665313       -0.2981158161
 N          1.4369520049        0.8873293606        0.1033570200
 H         -2.1519684607        1.3280098234       -0.2242225257
 H         -1.4152110955       -0.6918896380       -1.2645597047
 H         -2.1926189335       -0.9076827309        0.3178862555
 H         -0.0610673093       -2.2121900263        0.2019162601
 H          0.0136896961       -0.9600286790        1.4284374986
 H          1.1230510880       -0.5873038561       -1.3898535638
 H          2.1052337455       -1.1183381461       -0.0381572995
 H          0.5605858210        1.4065930293       -0.0441363785
 H          2.1847726887        1.3278816781       -0.4403079789
 H          1.6721732436        0.9499879697        1.0975521626
          15
        -18.18406184
 O         -1.2758560887       -0.9499982949       -0.0362895764
 C         -1.3192171246        0.4472118143        0.1709891859
 C         -0.0526962287        1.1264866153       -0.3386330888
 C          1.2035664555        0.5576646998        0.3118331625
 N          1.4678150356       -0.8488078538       -0.1048873754
 H         -2.1099459454       -1.3922942219        0.1620664065
 H         -1.4404009144        0.6220074446        1.2485509624
 H         -2.2061539815        0.8502603704       -0.3376668009
 H         -0.1138685349        2.2098379913       -0.1775666255
 H          0.0116856380        0.9795020859       -1.4219320278
 H          1.0989708062        0.5978184291        1.4029986343
 H          2.0806636852        1.1714401129        0.0687200026
 H          0.6037960702       -1.3926722871        0.0257778126
 H          2.2210125404       -1.2763269156        0.4415162203
 H          1.7152403749       -0.8926436152       -1.0970759023
