  15

 O          2.8125809835        1.3086297462       -0.6106364429
 C          2.3698675808        0.0460207937       -0.1278557568
 C          2.9093004898       -0.1641844659        1.2875731680
 C          4.4331116286       -0.2047398531        1.3158400062
 N          4.9701247163        1.1395322543        0.9969523911
 H          2.3905899327        1.5112792289       -1.4523174955
 H          2.7288976612       -0.7522357084       -0.7897894643
 H          1.2757667795        0.0083888151       -0.1083545807
 H          2.5114463541       -1.1034762390        1.6661880333
 H          2.5426904084        0.6392497183        1.9264833656
 H          4.7915826935       -0.9163251353        0.5716349149
 H          4.7831404524       -0.5205293521        2.2980210081
 H          4.4346301982        1.4938888834        0.1782774509
 H          5.9707380695        1.1110012734        0.7837667773
 H          4.8078120516        1.7863800403        1.7748866249
