22
0.0
N           -4.13592   0.32786  -0.61953
C           -3.26130  -0.26360   0.43896
C           -1.85071   0.18991   0.33440
C           -0.80522  -0.65832   0.18884
C            0.56802  -0.28139   0.08006
C            1.55438  -1.27947  -0.08713
C            2.88528  -0.94922  -0.19525
C            3.28265   0.37913  -0.14010
C            2.33517   1.37951   0.02497
C            1.00055   1.06309   0.13394
H           -3.77957   0.08543  -1.54878
H           -4.15010   1.34953  -0.54404
H           -5.09995  -0.01249  -0.54466
H           -3.30491  -1.35672   0.37442
H           -3.65810  -0.00970   1.42958
H           -1.67491   1.24910   0.36063
H           -1.02051  -1.71236   0.14959
H            1.25289  -2.31190  -0.13062
H            3.62344  -1.72429  -0.32330
H            4.32668   0.63367  -0.22506
H            2.64821   2.41014   0.06827
H            0.28225   1.85247   0.26405
