 xtb: 6.5.1 (fef0646)
          01232319053D

 14 13  0     0  0            999 V2000
    0.9975    0.0360    0.0794 N   0  0  0  0  0  0  0  0  0  0  0  0
    2.4955    0.0543    0.0821 C   0  0  0  0  0  0  0  0  0  0  0  0
    3.0169    1.4635    0.3294 C   0  0  0  0  0  0  0  0  0  0  0  0
    4.5428    1.4689    0.3291 C   0  0  0  0  0  0  0  0  0  0  0  0
    0.6326   -0.9103   -0.0864 H   0  0  0  0  0  0  0  0  0  0  0  0
    0.6437    0.6622   -0.6562 H   0  0  0  0  0  0  0  0  0  0  0  0
    0.6442    0.3746    0.9845 H   0  0  0  0  0  0  0  0  0  0  0  0
    2.8471   -0.3147   -0.8824 H   0  0  0  0  0  0  0  0  0  0  0  0
    2.8477   -0.6212    0.8629 H   0  0  0  0  0  0  0  0  0  0  0  0
    2.6582    1.8297    1.2929 H   0  0  0  0  0  0  0  0  0  0  0  0
    2.6568    2.1363   -0.4510 H   0  0  0  0  0  0  0  0  0  0  0  0
    4.9317    0.8231    1.1111 H   0  0  0  0  0  0  0  0  0  0  0  0
    4.9097    2.4748    0.5057 H   0  0  0  0  0  0  0  0  0  0  0  0
    4.9302    1.1289   -0.6271 H   0  0  0  0  0  0  0  0  0  0  0  0
  1  2  1  0  0  0  0
  2  3  1  0  0  0  0
  3  4  1  0  0  0  0
  1  5  1  0  0  0  0
  1  6  1  0  0  0  0
  1  7  1  0  0  0  0
  2  8  1  0  0  0  0
  2  9  1  0  0  0  0
  3 10  1  0  0  0  0
  3 11  1  0  0  0  0
  4 12  1  0  0  0  0
  4 13  1  0  0  0  0
  4 14  1  0  0  0  0
M  CHG  1   1   1
M  END
