 xtb: 6.5.1 (fef0646)
          01242310093D

 19 18  0     0  0            999 V2000
   -0.9222   -1.7923   -1.2014 N   0  0  0  0  0  0  0  0  0  0  0  0
   -0.3367   -2.3973    0.0254 C   0  0  0  0  0  0  0  0  0  0  0  0
    0.0208   -1.3320    1.0582 C   0  0  0  0  0  0  0  0  0  0  0  0
    0.9508   -0.3044    0.5173 C   0  0  0  0  0  0  0  0  0  0  0  0
    2.3037   -0.4084    0.4892 C   0  0  0  0  0  0  0  0  0  0  0  0
    2.9486    0.7174   -0.1021 C   0  0  0  0  0  0  0  0  0  0  0  0
    2.0811    1.6654   -0.5205 C   0  0  0  0  0  0  0  0  0  0  0  0
    0.4483    1.2003   -0.2012 S   0  0  0  0  0  0  0  0  0  0  0  0
   -2.8854    0.6459    0.1953 Cl  0  0  0  0  0  0  0  0  0  0  0  0
   -1.6956   -1.1522   -0.9423 H   0  0  0  0  0  0  0  0  0  0  0  0
   -1.2858   -2.4961   -1.8648 H   0  0  0  0  0  0  0  0  0  0  0  0
   -0.2212   -1.2184   -1.6952 H   0  0  0  0  0  0  0  0  0  0  0  0
    0.5577   -2.9722   -0.2438 H   0  0  0  0  0  0  0  0  0  0  0  0
   -1.0406   -3.1224    0.4534 H   0  0  0  0  0  0  0  0  0  0  0  0
    0.4625   -1.7888    1.9525 H   0  0  0  0  0  0  0  0  0  0  0  0
   -0.8917   -0.8303    1.4006 H   0  0  0  0  0  0  0  0  0  0  0  0
    2.8355   -1.2650    0.8760 H   0  0  0  0  0  0  0  0  0  0  0  0
    4.0215    0.8003   -0.2039 H   0  0  0  0  0  0  0  0  0  0  0  0
    2.3520    2.5920   -0.9926 H   0  0  0  0  0  0  0  0  0  0  0  0
  1  2  1  0  0  0  0
  2  3  1  0  0  0  0
  3  4  1  0  0  0  0
  4  5  2  0  0  0  0
  5  6  4  0  0  0  0
  6  7  2  0  0  0  0
  4  8  1  0  0  0  0
  7  8  1  0  0  0  0
  1 10  1  0  0  0  0
  1 11  1  0  0  0  0
  1 12  1  0  0  0  0
  2 13  1  0  0  0  0
  2 14  1  0  0  0  0
  3 15  1  0  0  0  0
  3 16  1  0  0  0  0
  5 17  1  0  0  0  0
  6 18  1  0  0  0  0
  7 19  1  0  0  0  0
M  END
