21
 xtb: 6.5.1 (fef0646)
N           -2.43044697724750       -0.00460908166491        0.06640373317312
C           -0.98171114529357       -0.00265672176645       -0.32236047069442
C           -0.26444935646415        1.26709558870213        0.17409972681557
C            1.22042957779523        1.26689883823695       -0.23361425243847
C            1.93855219564826        0.00613076475003        0.28038532652554
C            1.22629308498591       -1.27244055560994       -0.19826294251111
C           -0.26223657388125       -1.26143307267738        0.19616717223104
H           -2.87202676685238        0.90514645860765       -0.17167082601287
H           -2.52379806819320       -0.15299851147415        1.08640421768799
H           -2.94553211574092       -0.75512232355400       -0.42175393706283
H           -0.92864179121540        0.00007768270637       -1.42333746383688
H           -0.35075709722784        1.31121445898818        1.27149578122188
H           -0.77331356066215        2.16018978244322       -0.19288931406347
H            1.72232672465393        2.17031041480816        0.15644353608905
H            1.30361450324477        1.32429072264416       -1.31251977368561
H            1.96146442561195        0.00666657700174        1.37599374007841
H            2.98976042575148        0.00092158909965       -0.03573916136365
H            1.72316487256827       -2.16751936851422        0.17805521378997
H            1.30881876448785       -1.33766893794411       -1.30117860617009
H           -0.35038394243594       -1.29823331920529        1.27876559956265
H           -0.77223652739224       -2.16255989993984       -0.17657816946727
