16
1.92
N           -0.09320  -1.91227  -0.50500
C            1.25283  -1.75263   0.11776
C            1.94111  -0.45751  -0.31330
C            1.23962   0.76921   0.15950
C            1.46908   1.96565  -0.34488
Cl          -2.25872   0.73372   0.39784
H           -0.71637  -1.12799  -0.24518
H           -0.55363  -2.78689  -0.21476
H           -0.02359  -1.91747  -1.53187
H            1.87651  -2.61795  -0.13948
H            1.15871  -1.77325   1.20987
H            2.00925  -0.43227  -1.40692
H            2.97797  -0.43640   0.04606
H            0.53701   0.65963   0.97053
H            2.17567   2.10400  -1.14031
H            0.96342   2.84154   0.01515
