16
 xtb: 6.5.1 (fef0646)
N           -0.02588831429287       -1.98511508969942       -0.53463410826949
C            1.29960034328247       -1.77492171271149        0.11415728631424
C            1.95846602994788       -0.46370632692386       -0.31570015844305
C            1.23708352610777        0.75158866094995        0.15965145123409
C            1.44997244216742        1.95200337182515       -0.34294554112532
Cl          -2.33997777953575        0.82901482026200        0.42323111183385
H           -0.69934587020502       -1.15060680797963       -0.26102182823265
H           -0.53286589920031       -2.80695937139039       -0.21948492609699
H           -0.00007621411607       -1.94283681996793       -1.53960313917117
H            1.89814770026332       -2.62002450089553       -0.13547037515842
H            1.16674043638131       -1.77803893660473        1.20832582861808
H            2.01362910221857       -0.43332979157850       -1.40766219164817
H            2.98316386961990       -0.43274850551074        0.04460238806718
H            0.53639268600115        0.65169731297029        0.97033759848018
H            2.16955097585151        2.10330065819256       -1.13970886851713
H            0.95391532232951        2.83506006229439        0.01613004490123
