 xtb: 6.5.1 (fef0646)
          01242317083D

 16 14  0     0  0            999 V2000
   -0.0932   -1.9123   -0.5050 N   0  0  0  0  0  0  0  0  0  0  0  0
    1.2528   -1.7526    0.1178 C   0  0  0  0  0  0  0  0  0  0  0  0
    1.9411   -0.4575   -0.3133 C   0  0  0  0  0  0  0  0  0  0  0  0
    1.2396    0.7692    0.1595 C   0  0  0  0  0  0  0  0  0  0  0  0
    1.4691    1.9656   -0.3449 C   0  0  0  0  0  0  0  0  0  0  0  0
   -2.2587    0.7337    0.3978 Cl  0  0  0  0  0  0  0  0  0  0  0  0
   -0.7164   -1.1280   -0.2452 H   0  0  0  0  0  0  0  0  0  0  0  0
   -0.5536   -2.7869   -0.2148 H   0  0  0  0  0  0  0  0  0  0  0  0
   -0.0236   -1.9175   -1.5319 H   0  0  0  0  0  0  0  0  0  0  0  0
    1.8765   -2.6180   -0.1395 H   0  0  0  0  0  0  0  0  0  0  0  0
    1.1587   -1.7733    1.2099 H   0  0  0  0  0  0  0  0  0  0  0  0
    2.0092   -0.4323   -1.4069 H   0  0  0  0  0  0  0  0  0  0  0  0
    2.9780   -0.4364    0.0461 H   0  0  0  0  0  0  0  0  0  0  0  0
    0.5370    0.6596    0.9705 H   0  0  0  0  0  0  0  0  0  0  0  0
    2.1757    2.1040   -1.1403 H   0  0  0  0  0  0  0  0  0  0  0  0
    0.9634    2.8415    0.0151 H   0  0  0  0  0  0  0  0  0  0  0  0
  1  2  1  0  0  0  0
  2  3  1  0  0  0  0
  3  4  1  0  0  0  0
  4  5  2  0  0  0  0
  1  7  1  0  0  0  0
  1  8  1  0  0  0  0
  1  9  1  0  0  0  0
  2 10  1  0  0  0  0
  2 11  1  0  0  0  0
  3 12  1  0  0  0  0
  3 13  1  0  0  0  0
  4 14  1  0  0  0  0
  5 15  1  0  0  0  0
  5 16  1  0  0  0  0
M  END
