25
 xtb: 6.5.1 (fef0646)
N           -1.61919193644014       -0.34719596541720       -0.40632984162985
C           -0.52236204669355        0.20761955516585        0.43437934893398
C            0.85066745482881       -0.44623281020252        0.20237667429832
C            1.87627244325726        0.01223843444933        1.27083875189072
C            3.25374415761843       -0.64019766635185        1.06179614067567
C            3.79277402409140       -0.35028523247890       -0.34893712837639
C            2.79111891702252       -0.81102882125460       -1.42169356588880
C            1.41126511520111       -0.16093234892844       -1.21221183178376
Cl          -4.43851032080913        0.98751876249202        0.19285518613525
H           -2.49897072945476        0.02736064680367       -0.23249142250106
H           -1.64847618464609       -1.41338775774319       -0.28465393999206
H           -1.37270269278406       -0.24093104953844       -1.43422499284556
H           -0.78496794873813        0.07853232418191        1.48085280192832
H           -0.42821392911327        1.26755217160047        0.25345640073387
H            0.76321642239683       -1.54470173540151        0.29878686735622
H            1.51111777048631       -0.19273301410781        2.27909835793332
H            1.99278929591394        1.10226350029882        1.21280842159019
H            3.18808343763546       -1.72421240898677        1.20429612882794
H            3.98555896812288       -0.30108939415155        1.83104532864714
H            4.79478895532054       -0.82264730223196       -0.49589148943114
H            3.98910085137849        0.72775308028235       -0.45534250207192
H            2.71278132051724       -1.90507957102299       -1.37548268888566
H            3.19724436176498       -0.59824431870354       -2.42917414966683
H            0.72630156413269       -0.50278596872505       -1.98029109452631
H            1.51248373322670        0.91995098521166       -1.34525818302789
