  18

 N          2.7190321182       -0.0015592803        0.6782190997
 C          1.9128187149        0.0025674561       -0.5819044616
 C          0.4395586843        0.0011943108       -0.3208081409
 C         -0.2613378040        1.2025654873       -0.1763231926
 C         -1.6266069838        1.2016535315        0.0903659122
 C         -2.3097501369       -0.0015421830        0.2224146766
 C         -1.6245617398       -1.2033777453        0.0885907675
 C         -0.2593218899       -1.2015700868       -0.1782505912
 H          3.7322246560       -0.0000668494        0.4856681391
 H          2.5106045385       -0.8339928979        1.2485611398
 H          2.5093343756        0.8262744488        1.2547585801
 H          2.1798786525       -0.8684697895       -1.1913113967
 H          2.1793756794        0.8779968866       -1.1852092180
 H          0.2644748571        2.1371173057       -0.2783338646
 H         -2.1567147507        2.1356247516        0.1934898976
 H         -3.3692217930       -0.0025935188        0.4279038009
 H         -2.1532538497       -2.1383944832        0.1894827382
 H          0.2678915179       -2.1350657741       -0.2827559003
          18
        -22.55334398
 N          2.7341733138        0.0043266205        0.6510080201
 C          1.9131910343       -0.0065886375       -0.5992311679
 C          0.4427823698       -0.0030418983       -0.3226914078
 C         -0.2529160843        1.2010519068       -0.1755401996
 C         -1.6164100559        1.2043045736        0.1001196864
 C         -2.3022008178        0.0034515300        0.2388537231
 C         -1.6215447380       -1.2008289467        0.1044139434
 C         -0.2580665897       -1.2036869941       -0.1713447078
 H          2.5300132974       -0.8198399938        1.2346893584
 H          2.5332352422        0.8408856650        1.2180789548
 H          3.7450837749        0.0001314553        0.4463260380
 H          2.1719872381       -0.8855756862       -1.2006362030
 H          2.1729932834        0.8610934565       -1.2164874026
 H          0.2752962500        2.1336690444       -0.2826082680
 H         -2.1434452197        2.1399134584        0.2044485084
 H         -3.3605266746        0.0061652905        0.4501474363
 H         -2.1521608982       -2.1339177668        0.2117983757
 H          0.2657021358       -2.1390338607       -0.2763459936
