  18

 N          1.0007968022       -0.6089019596       -0.2409576095
 C          2.3992301592       -0.0777057697       -0.0313332071
 C          2.8881729058        0.5468383516       -1.3069791459
 C          2.6514172981        1.8938921585       -1.5609776234
 C          3.0872044936        2.4631699058       -2.7446146322
 C          3.7548184776        1.6901273790       -3.6809351155
 C          3.9872744235        0.3463292199       -3.4355285189
 C          3.5532542246       -0.2264658066       -2.2529612331
 H          0.6269310723       -1.0444242256        0.6114172689
 H          1.0122953086       -1.3035474407       -0.9993622793
 H          0.3843242484        0.1637452584       -0.5251987009
 H          3.0354685397       -0.9116812052        0.2664179903
 H          2.3641697822        0.6544974976        0.7759021775
 H          2.1458580295        2.5024831420       -0.8250450074
 H          2.9108439342        3.5104182406       -2.9325834653
 H          4.1003855926        2.1369253793       -4.5997195393
 H          4.5116935068       -0.2546285422       -4.1614517493
 H          3.7508312011       -1.2704215831       -2.0561996096
