 xtb: 6.5.1 (fef0646)
          01242314583D

 29 29  0     0  0            999 V2000
    2.1844    0.3130    0.3082 N   0  0  0  0  0  0  0  0  0  0  0  0
    2.8435   -0.4223   -0.7849 C   0  0  0  0  0  0  0  0  0  0  0  0
    3.3186   -1.7859   -0.2968 C   0  0  0  0  0  0  0  0  0  0  0  0
    4.3239   -1.5502    0.6815 O   0  0  0  0  0  0  0  0  0  0  0  0
    4.9637   -2.6157    1.2390 C   0  0  0  0  0  0  0  0  0  0  0  0
    4.6408   -3.9292    1.0022 C   0  0  0  0  0  0  0  0  0  0  0  0
    5.3420   -4.9591    1.6480 C   0  0  0  0  0  0  0  0  0  0  0  0
    6.3534   -4.6832    2.5211 C   0  0  0  0  0  0  0  0  0  0  0  0
    6.7212   -3.3456    2.7814 C   0  0  0  0  0  0  0  0  0  0  0  0
    7.7685   -3.0200    3.6679 C   0  0  0  0  0  0  0  0  0  0  0  0
    8.1180   -1.7181    3.8963 C   0  0  0  0  0  0  0  0  0  0  0  0
    7.4373   -0.6801    3.2438 C   0  0  0  0  0  0  0  0  0  0  0  0
    6.4135   -0.9612    2.3815 C   0  0  0  0  0  0  0  0  0  0  0  0
    6.0272   -2.2931    2.1328 C   0  0  0  0  0  0  0  0  0  0  0  0
    1.3736    3.0870   -0.6225 Cl  0  0  0  0  0  0  0  0  0  0  0  0
    1.9212    1.2859   -0.0027 H   0  0  0  0  0  0  0  0  0  0  0  0
    2.8231    0.3942    1.1044 H   0  0  0  0  0  0  0  0  0  0  0  0
    1.3260   -0.1545    0.6108 H   0  0  0  0  0  0  0  0  0  0  0  0
    3.6984    0.1597   -1.1269 H   0  0  0  0  0  0  0  0  0  0  0  0
    2.1477   -0.5428   -1.6128 H   0  0  0  0  0  0  0  0  0  0  0  0
    3.7328   -2.3562   -1.1351 H   0  0  0  0  0  0  0  0  0  0  0  0
    2.4897   -2.3509    0.1460 H   0  0  0  0  0  0  0  0  0  0  0  0
    3.8489   -4.1993    0.3234 H   0  0  0  0  0  0  0  0  0  0  0  0
    5.0628   -5.9816    1.4430 H   0  0  0  0  0  0  0  0  0  0  0  0
    6.8874   -5.4779    3.0199 H   0  0  0  0  0  0  0  0  0  0  0  0
    8.2934   -3.8242    4.1632 H   0  0  0  0  0  0  0  0  0  0  0  0
    8.9227   -1.4811    4.5764 H   0  0  0  0  0  0  0  0  0  0  0  0
    7.7292    0.3433    3.4263 H   0  0  0  0  0  0  0  0  0  0  0  0
    5.8947   -0.1665    1.8699 H   0  0  0  0  0  0  0  0  0  0  0  0
  1  2  1  0  0  0  0
  2  3  1  0  0  0  0
  3  4  1  0  0  0  0
  4  5  1  0  0  0  0
  5  6  4  0  0  0  0
  6  7  4  0  0  0  0
  7  8  2  0  0  0  0
  8  9  4  0  0  0  0
  9 10  4  0  0  0  0
 10 11  2  0  0  0  0
 11 12  4  0  0  0  0
 12 13  2  0  0  0  0
  5 14  4  0  0  0  0
  9 14  4  0  0  0  0
 13 14  4  0  0  0  0
  1 16  1  0  0  0  0
  1 17  1  0  0  0  0
  1 18  1  0  0  0  0
  2 19  1  0  0  0  0
  2 20  1  0  0  0  0
  3 21  1  0  0  0  0
  3 22  1  0  0  0  0
  6 23  1  0  0  0  0
  7 24  1  0  0  0  0
  8 25  1  0  0  0  0
 10 26  1  0  0  0  0
 11 27  1  0  0  0  0
 12 28  1  0  0  0  0
 13 29  1  0  0  0  0
M  END
