27
0.0
N           -3.30692   1.22526  -1.12771
C           -3.66733   0.02557  -0.31718
C           -2.78478  -0.13720   0.91841
C           -1.34159  -0.36177   0.57836
C           -0.42764   0.67864   0.64783
C            0.92278   0.49136   0.30322
C            1.86451   1.53430   0.36733
C            3.18159   1.31387   0.02161
C            3.59957   0.05817  -0.39546
C            2.70431  -0.98833  -0.47145
C            1.35324  -0.80089  -0.12771
C            0.40908  -1.83985  -0.19345
C           -0.90785  -1.61676   0.15132
H           -3.40874   2.08270  -0.57262
H           -3.90329   1.31282  -1.95887
H           -2.33141   1.16848  -1.44308
H           -3.58696  -0.86861  -0.94528
H           -4.72226   0.09305  -0.02544
H           -3.13751  -0.97134   1.53488
H           -2.87253   0.75107   1.55132
H           -0.75350   1.64931   0.97505
H            1.54594   2.51026   0.69051
H            3.89172   2.12273   0.07599
H            4.63188  -0.10017  -0.66217
H            3.03392  -1.96027  -0.79571
H            0.72493  -2.81623  -0.51778
H           -1.61894  -2.42295   0.09437
