40
 xtb: 6.5.1 (fef0646)
N           -7.53724960751656        1.11667332647744       -1.02840463584761
C           -7.66162809752110        0.83900909096122        0.42845266901463
C           -7.15017483194950       -0.54947033475890        0.80108671211402
C           -5.69462390163260       -0.72296934320784        0.54032165812386
C           -5.13763815129181       -1.67356683329338       -0.25441867475862
C           -3.72178404924815       -1.60845438422613       -0.32144774396098
C           -3.17945976570291       -0.59939148646419        0.42225025003854
C           -1.77750537831009       -0.28934194527127        0.51997280018469
C           -1.24106056997188        0.74624107280727        1.23761443300479
C            0.16527971741472        0.83091325686377        1.15968311073459
C            0.73951337734421       -0.13903490560819        0.38057067383926
C            2.14664872367232       -0.28322027701930        0.13001699575038
C            2.72198057349633       -1.24020438415544       -0.66352078712018
C            4.12818744844668       -1.15027341416935       -0.74283453928162
C            4.66287638439874       -0.12414211517605       -0.01098607247742
C            6.06359848973641        0.19286758445800        0.08821205749093
C            6.60021507151370        1.19275498673828        0.85054792415508
C            8.01419768124503        1.28330393093166        0.76235030878664
C            8.56071139455626        0.36054384267231       -0.06283232700700
S            7.34161706597494       -0.63998782811480       -0.76648361335935
S            3.38473267688745        0.75448085114556        0.78935410628377
S           -0.50024349557339       -1.19377018142761       -0.25801387884037
S           -4.45266888055799        0.27876355380661        1.22949421731475
Cl          -4.09688146627214        1.21202263025359       -2.33003775815073
H           -6.51491216474502        1.06437197347821       -1.33455468613924
H           -7.85752195738597        2.04685103468431       -1.30618947708876
H           -8.02071773839194        0.41759858146999       -1.60335221924550
H           -8.70243474157074        0.96504921933147        0.69895794092650
H           -7.09935865842612        1.60537834841594        0.97463214080445
H           -7.70792221743837       -1.30226761492603        0.24142475304969
H           -7.34714894778089       -0.74041552122384        1.85636093363573
H           -5.72097177291500       -2.39641965544120       -0.79770211989602
H           -3.12143660759081       -2.27406097859019       -0.91878478325685
H           -1.84178166340078        1.40210399796954        1.85112193189509
H            0.74954911514183        1.55679729764967        1.70828549070791
H            2.14199081712432       -1.98041792149482       -1.18966979403700
H            4.73256455813115       -1.81517609125179       -1.33783591501836
H            5.99564483550827        1.87535835445866        1.42434143366504
H            8.59119853752071        2.04226903507360        1.26773914877483
H            9.60891672530764        0.25032856602212       -0.26977517029851
