22

N          1.10615       -0.00712        0.19053
C          2.56456       -0.06746        0.11193
C          2.99983       -1.46940        0.53260
C          3.07396        0.38884       -1.23948
C          3.34923        1.75367       -1.44050
C          3.77276        2.22521       -2.68567
C          3.92220        1.34239       -3.75241
C          3.63987       -0.01009       -3.57286
C          3.21218       -0.48259       -2.32985
Cl        -0.94115        0.37653       -1.69411
H          0.64389       -0.27939        1.05673
H          0.62386       -0.52925       -0.57999
H          0.71055        0.90834       -0.09994
H          2.92917        0.62882        0.87740
H          2.57261       -2.24745       -0.10980
H          2.67721       -1.68138        1.55830
H          4.09130       -1.56578        0.50131
H          3.22080        2.47558       -0.63592
H          3.96469        3.28535       -2.83273
H          4.23384        1.70952       -4.72643
H          3.73100       -0.69393       -4.41388
H          2.96720       -1.53784       -2.24956
