  18

 N         -4.1851445984        1.6233063097       -0.1635644753
 C         -2.8248676340        1.6331924713        0.3599680740
 C         -1.8901088719        0.7173238355       -0.4221356479
 C         -0.4560048394        0.7266989407        0.1138706405
 C          0.4704511038       -0.2020278888       -0.6483538755
 I          2.4747395453       -0.1892786483        0.0618505241
 Cl        -4.9764131407       -1.5870250435        0.2314392901
 H         -4.7692166623        2.2858740238        0.3361294502
 H         -4.6724201121       -0.2949798372        0.0744348267
 H         -4.1790276969        1.9243964328       -1.1316104211
 H         -2.8480977770        1.3204689244        1.4107555465
 H         -2.4255657523        2.6562453155        0.3629041107
 H         -1.8921656697        1.0074988533       -1.4788084017
 H         -2.2828149656       -0.3052136504       -0.4071127242
 H         -0.4548823083        0.4520999388        1.1766941313
 H         -0.0551754707        1.7483280739        0.0838392285
 H          0.5105265641        0.0649873909       -1.7060651981
 H          0.1229871808       -1.2353863041       -0.5926891089
          18
        -25.44910705
 N         -3.1379885503        1.6293586440       -0.4121257949
 C         -1.7467703259        1.9798815388       -0.6656427700
 C         -0.8856632555        1.9373437411        0.5939384504
 C         -0.8626829092        0.5661808136        1.2719889303
 C         -0.2373897042       -0.5242378276        0.4181954167
 I          1.7939477531       -0.1796064303       -0.1035397940
 Cl        -3.4084693501       -1.6737584603       -0.0768063816
 H         -3.4999099028        2.2097620063        0.3361767447
 H         -3.3122130866       -0.3483538132       -0.2185882612
 H         -3.7088310061        1.8343035294       -1.2267933589
 H         -1.6904648965        2.9760464706       -1.1250944374
 H         -1.3448630812        1.2887657980       -1.4164804775
 H         -1.2534584174        2.6920927572        1.2999897068
 H          0.1408895782        2.2396931943        0.3546125641
 H         -1.8860970254        0.2834618775        1.5524266268
 H         -0.3096829039        0.6322671846        2.2191222616
 H         -0.7748328980       -0.6514959579       -0.5227196163
 H         -0.2547546741       -1.4915810765        0.9257798352
