  18

 N          1.2421218569        0.2478528122        0.3327183208
 C          2.6946670298        0.1965817518        0.1786567147
 C          3.1020205516        0.8596377157       -1.1345024864
 C          4.6082888115        0.7528154248       -1.3684180848
 C          4.9867137082        1.3925210822       -2.6886524584
 I          7.1174051161        1.2945602536       -3.0387308054
 Cl        -0.0224792379       -1.0537986931       -1.9829361927
 H          0.9455555889       -0.2300175613        1.1759865122
 H          0.5617449917       -0.4557564941       -0.9024842437
 H          0.9159116868        1.2081330455        0.3702954228
 H          2.9848452426       -0.8563791523        0.1615970684
 H          3.2177152812        0.6816649890        1.0153674279
 H          2.8080368780        1.9120045404       -1.1151239060
 H          2.5629264373        0.3759687349       -1.9496316292
 H          4.8999947155       -0.2995971454       -1.3711587848
 H          5.1419134945        1.2446401919       -0.5511777699
 H          4.7245959551        2.4475044708       -2.7118453225
 H          4.5161818922        0.8838240332       -3.5259997831
