21
0.592
N           -0.67148  -1.22106   1.00628
C            0.06823  -1.69018  -0.20141
C            0.51838  -0.54100  -1.10021
C            1.45598   0.45635  -0.41566
C            2.78566  -0.15434   0.03001
C            3.72169   0.87028   0.65444
Cl          -3.16587   0.97977  -0.09056
H           -1.45481  -0.60322   0.73196
H           -0.06033  -0.67872   1.63224
H           -1.06097  -2.00310   1.55176
H           -0.56939  -2.37962  -0.76955
H            0.93222  -2.28977   0.10703
H           -0.36995  -0.01448  -1.47138
H            1.01117  -0.94068  -1.99558
H            0.95369   0.90676   0.44813
H            1.66032   1.29827  -1.08984
H            3.27027  -0.63412  -0.83030
H            2.59805  -0.96897   0.74052
H            3.26901   1.33544   1.53214
H            3.95611   1.67182  -0.04849
H            4.66747   0.42449   0.97057
