21
 xtb: 6.5.1 (fef0646)
N           -0.79149661002678       -1.12869910462475        0.95516074551140
C            0.01823387677745       -1.65069269038408       -0.19162248874586
C            0.51712773272986       -0.53278039495716       -1.10622030908383
C            1.45640463547138        0.46263643431451       -0.42131321744285
C            2.78365793878673       -0.15187705160063        0.02554393823649
C            3.72011023543078        0.86900727247989        0.65547997757764
Cl          -3.03611549974389        0.87117611206725       -0.04790116890435
H           -1.48199127236907       -0.56990018792257        0.70139228788389
H           -0.09948996318931       -0.65579130480494        1.62641896024597
H           -1.10810682915473       -1.97211648955970        1.53573775970845
H           -0.57669960727605       -2.37228250749568       -0.77003796272998
H            0.91238590307436       -2.27701136747450        0.12741834763756
H           -0.36525053939155       -0.01000258773175       -1.48216490006324
H            1.01485482879374       -0.94623342010443       -1.99154428550421
H            0.95392337565786        0.90852581153792        0.44652056066460
H            1.66158751041147        1.29996918552011       -1.09141463163043
H            3.26993133785260       -0.63292755909254       -0.83171274855131
H            2.59599666695305       -0.96882225168090        0.73807959364810
H            3.26836998016068        1.33412817584791        1.53282344049093
H            3.95620359129964        1.67222314535789       -0.04720777937407
H            4.66677353388530        0.42345011314820        0.97068551091588
