 xtb: 6.5.1 (fef0646)
          01242317103D

 21 19  0     0  0            999 V2000
   -0.6715   -1.2211    1.0063 N   0  0  0  0  0  0  0  0  0  0  0  0
    0.0682   -1.6902   -0.2014 C   0  0  0  0  0  0  0  0  0  0  0  0
    0.5184   -0.5410   -1.1002 C   0  0  0  0  0  0  0  0  0  0  0  0
    1.4560    0.4563   -0.4157 C   0  0  0  0  0  0  0  0  0  0  0  0
    2.7857   -0.1544    0.0300 C   0  0  0  0  0  0  0  0  0  0  0  0
    3.7217    0.8703    0.6544 C   0  0  0  0  0  0  0  0  0  0  0  0
   -3.1659    0.9798   -0.0906 Cl  0  0  0  0  0  0  0  0  0  0  0  0
   -1.4548   -0.6032    0.7320 H   0  0  0  0  0  0  0  0  0  0  0  0
   -0.0603   -0.6787    1.6322 H   0  0  0  0  0  0  0  0  0  0  0  0
   -1.0610   -2.0031    1.5518 H   0  0  0  0  0  0  0  0  0  0  0  0
   -0.5694   -2.3796   -0.7695 H   0  0  0  0  0  0  0  0  0  0  0  0
    0.9322   -2.2898    0.1070 H   0  0  0  0  0  0  0  0  0  0  0  0
   -0.3700   -0.0145   -1.4714 H   0  0  0  0  0  0  0  0  0  0  0  0
    1.0112   -0.9407   -1.9956 H   0  0  0  0  0  0  0  0  0  0  0  0
    0.9537    0.9068    0.4481 H   0  0  0  0  0  0  0  0  0  0  0  0
    1.6603    1.2983   -1.0898 H   0  0  0  0  0  0  0  0  0  0  0  0
    3.2703   -0.6341   -0.8303 H   0  0  0  0  0  0  0  0  0  0  0  0
    2.5980   -0.9690    0.7405 H   0  0  0  0  0  0  0  0  0  0  0  0
    3.2690    1.3354    1.5321 H   0  0  0  0  0  0  0  0  0  0  0  0
    3.9561    1.6718   -0.0485 H   0  0  0  0  0  0  0  0  0  0  0  0
    4.6675    0.4245    0.9706 H   0  0  0  0  0  0  0  0  0  0  0  0
  1  2  1  0  0  0  0
  2  3  1  0  0  0  0
  3  4  1  0  0  0  0
  4  5  1  0  0  0  0
  5  6  1  0  0  0  0
  1  8  1  0  0  0  0
  1  9  1  0  0  0  0
  1 10  1  0  0  0  0
  2 11  1  0  0  0  0
  2 12  1  0  0  0  0
  3 13  1  0  0  0  0
  3 14  1  0  0  0  0
  4 15  1  0  0  0  0
  4 16  1  0  0  0  0
  5 17  1  0  0  0  0
  5 18  1  0  0  0  0
  6 19  1  0  0  0  0
  6 20  1  0  0  0  0
  6 21  1  0  0  0  0
M  END
