25
 xtb: 6.5.1 (fef0646)
N           -3.08494740176531        1.57090569973086       -0.86817422449004
C           -1.77550088055902        2.07108475956109       -0.36133346721895
C           -0.67796028522292        1.01914040235446       -0.45664529620911
C            0.66775785592198        1.50404434626271        0.08697624939654
C            1.75027554305243        0.47190723465201       -0.04081874968076
C            1.97394791246987       -0.45050268691295        0.97168038965833
C            2.94652470747854       -1.42179344929510        0.83681910065300
C            3.70319895432839       -1.48713666362589       -0.31673306981376
C            3.48404564894155       -0.58134356466606       -1.33571964235077
C            2.51195999809226        0.38966336222241       -1.19894201709002
Cl          -3.78559733549880       -1.46849540849445        1.11241665148542
H           -3.04323909941315        1.24905807837791       -1.82758652404717
H           -3.85628781728080        2.21762185903888       -0.74351718874066
H           -3.37693342950830        0.68112785003479       -0.30258649996561
H           -1.89029279580874        2.37072916128937        0.69373856492085
H           -1.51139533359172        2.93781417110501       -0.91144070241891
H           -0.57850752516830        0.67684491405577       -1.49333709085314
H           -0.97913525099988        0.09446078912150        0.09481175106051
H            0.56509610846577        1.80248895781674        1.12065956759826
H            0.95681890758942        2.40598653198170       -0.46503564648639
H            1.33745413208445       -0.43185619592659        1.83724432188805
H            3.08017782163937       -2.15483258418278        1.61406122215304
H            4.47175514584071       -2.23921071332756       -0.41249293330783
H            4.11565300026326       -0.60192637491107       -2.21340627689248
H            2.37112415455408        1.11783593523481       -1.98289704276493
