 xtb: 6.5.1 (fef0646)
          01242310103D

 25 24  0     0  0            999 V2000
   -1.1037   -0.5086   -0.6768 N   0  0  0  0  0  0  0  0  0  0  0  0
   -1.2026   -1.7664    0.1140 C   0  0  0  0  0  0  0  0  0  0  0  0
    0.0883   -2.5837    0.0892 C   0  0  0  0  0  0  0  0  0  0  0  0
    1.2011   -2.0185    0.9830 C   0  0  0  0  0  0  0  0  0  0  0  0
    1.6806   -0.6562    0.5711 C   0  0  0  0  0  0  0  0  0  0  0  0
    1.3541    0.4701    1.3169 C   0  0  0  0  0  0  0  0  0  0  0  0
    1.7231    1.7304    0.8884 C   0  0  0  0  0  0  0  0  0  0  0  0
    2.4326    1.8806   -0.2864 C   0  0  0  0  0  0  0  0  0  0  0  0
    2.7743    0.7693   -1.0309 C   0  0  0  0  0  0  0  0  0  0  0  0
    2.3993   -0.4905   -0.6049 C   0  0  0  0  0  0  0  0  0  0  0  0
   -3.9945    1.3901   -0.4422 Cl  0  0  0  0  0  0  0  0  0  0  0  0
   -0.9177   -0.7064   -1.6728 H   0  0  0  0  0  0  0  0  0  0  0  0
   -0.3237    0.0677   -0.3322 H   0  0  0  0  0  0  0  0  0  0  0  0
   -1.9692    0.0641   -0.6212 H   0  0  0  0  0  0  0  0  0  0  0  0
   -2.0382   -2.3619   -0.2764 H   0  0  0  0  0  0  0  0  0  0  0  0
   -1.4703   -1.5329    1.1516 H   0  0  0  0  0  0  0  0  0  0  0  0
    0.4486   -2.6472   -0.9441 H   0  0  0  0  0  0  0  0  0  0  0  0
   -0.1244   -3.6201    0.3857 H   0  0  0  0  0  0  0  0  0  0  0  0
    2.0607   -2.7003    0.9954 H   0  0  0  0  0  0  0  0  0  0  0  0
    0.8503   -1.9779    2.0209 H   0  0  0  0  0  0  0  0  0  0  0  0
    0.7906    0.3533    2.2287 H   0  0  0  0  0  0  0  0  0  0  0  0
    1.4574    2.5977    1.4726 H   0  0  0  0  0  0  0  0  0  0  0  0
    2.7225    2.8648   -0.6205 H   0  0  0  0  0  0  0  0  0  0  0  0
    3.3302    0.8848   -1.9483 H   0  0  0  0  0  0  0  0  0  0  0  0
    2.6530   -1.3581   -1.1919 H   0  0  0  0  0  0  0  0  0  0  0  0
  1  2  1  0  0  0  0
  2  3  1  0  0  0  0
  3  4  1  0  0  0  0
  4  5  1  0  0  0  0
  5  6  4  0  0  0  0
  6  7  4  0  0  0  0
  7  8  4  0  0  0  0
  8  9  4  0  0  0  0
  5 10  4  0  0  0  0
  9 10  4  0  0  0  0
  1 12  1  0  0  0  0
  1 13  1  0  0  0  0
  1 14  1  0  0  0  0
  2 15  1  0  0  0  0
  2 16  1  0  0  0  0
  3 17  1  0  0  0  0
  3 18  1  0  0  0  0
  4 19  1  0  0  0  0
  4 20  1  0  0  0  0
  6 21  1  0  0  0  0
  7 22  1  0  0  0  0
  8 23  1  0  0  0  0
  9 24  1  0  0  0  0
 10 25  1  0  0  0  0
M  END
