27
2.359
N           -3.76643  -0.41890  -0.14653
C           -2.63121   0.42077   0.33665
C           -1.41492   0.41186  -0.60495
C           -0.71346  -0.97169  -0.68032
C            0.07402  -1.31015   0.59723
C            1.09181  -0.20446   0.95620
C            2.23488  -0.18298  -0.03127
O            1.94491   0.07073  -1.31957
O            3.35961  -0.39041   0.36026
C            0.41062   1.18045   1.03976
C           -0.37764   1.51045  -0.23947
H           -4.07577  -0.12365  -1.08446
H           -4.58283  -0.34814   0.48004
H           -3.51328  -1.41602  -0.20212
H           -2.33003   0.09021   1.33539
H           -2.98609   1.45059   0.46206
H           -1.80023   0.64224  -1.61302
H           -0.02008  -0.97667  -1.53116
H           -1.44655  -1.75730  -0.89705
H            0.61014  -2.26018   0.46852
H           -0.61546  -1.47213   1.43338
H            1.54297  -0.43928   1.93546
H            2.78145   0.04901  -1.81512
H            1.17821   1.94586   1.21738
H           -0.25325   1.22048   1.91083
H            0.33005   1.63073  -1.06950
H           -0.88071   2.48013  -0.13782
