18
 xtb: 6.5.1 (fef0646)
N           -2.40773668173565        0.98954632923401        2.12566485307686
C           -1.26359536910872        1.76452387667785        1.56647282350036
C           -0.03810612414824        0.89635690165182        1.29602240800901
C           -0.29890807678953       -0.20913510097630        0.27390429953235
C            0.95950593962098       -0.97974467752779       -0.08844155107138
Br           2.23872042477742        0.12218995610075       -1.00840180576710
Cl          -3.64807000246310       -1.27294967959200       -0.01692586670440
H           -2.07105787912425        0.51687800962899        3.02529608300008
H           -2.75799323850127        0.30476702734963        1.51816971358663
H           -3.16446253056864        1.63150929163585        2.44389208980425
H           -0.97359229895167        2.60059791739038        2.24152559282865
H           -1.59835116844854        2.26192557122332        0.64554703327263
H            0.31161573875404        0.44110235266962        2.20232586508183
H            0.79448833392509        1.52710378443972        0.92749953450724
H           -0.73335787970509        0.27759506849798       -0.66928422925913
H           -1.09823462611270       -0.85847430586209        0.60880358134293
H            0.70089381635557       -1.78866508376039       -0.81807245203051
H            1.38556335012507       -1.41388717492036        0.75889570077460
