  26

 N         -4.5389444655        0.9860156890       -0.1836481126
 C         -3.1652057378        0.4404130613       -0.0048769252
 C         -2.1587868715        1.5202851952        0.3722094021
 C         -0.7766726190        0.9910770652        0.5343987323
 C         -0.3223778855        0.2927840235        1.6072808883
 C          1.0358569394       -0.1102277112        1.4937389660
 C          1.6305483637        0.2816360854        0.3286030754
 C          2.9988539146        0.0068609260       -0.0465906460
 C          3.6097580414        0.4290250094       -1.1935433708
 C          4.9647465357        0.0116993290       -1.3056142474
 C          5.3861301889       -0.7258860173       -0.2517694100
 S          4.1240510005       -0.9228200324        0.9080406462
 S          0.4868285563        1.1655194165       -0.6439374903
 Cl        -6.7727077980       -1.5530951286       -1.0284208189
 H         -5.2222552357        0.2450973363       -0.4352080978
 H         -4.5595522912        1.6972350684       -0.9308374712
 H         -4.8727554946        1.4401143248        0.6811928170
 H         -2.8408075968       -0.0584749307       -0.9261557028
 H         -3.1729509254       -0.3421265132        0.7633796747
 H         -2.4709173527        2.0151234074        1.2989963014
 H         -2.1552774470        2.3052484018       -0.3925024732
 H         -0.9409074556        0.0633930177        2.4620971341
 H          1.5566007669       -0.6740444100        2.2526262180
 H          3.1046410928        1.0251697982       -1.9382704697
 H          5.5927737424        0.2611445977       -2.1492325233
 H          6.3706029312       -1.1403113485       -0.1339801240
          26
        -41.42381765
 N         -3.3605850063        0.8566430753       -1.5596090900
 C         -3.2442007441        1.9731591046       -0.5821378286
 C         -2.6296575023        1.5116417240        0.7368404154
 C         -1.3293852141        0.8142068444        0.5467810187
 C         -1.1735930693       -0.5286441781        0.4145096384
 C          0.1748465995       -0.9323909479        0.2215584466
 C          1.0609892919        0.1065517160        0.2041902652
 C          2.4901017125       -0.0122717211        0.0258668468
 C          3.3771748329        1.0269365062        0.0098859615
 C          4.7270956933        0.6231127540       -0.1828546893
 C          4.8705540065       -0.7163735625       -0.3137819726
 S          3.3448279915       -1.5148642674       -0.2025661166
 S          0.2084932350        1.6091535616        0.4302939163
 Cl        -4.4236442588       -1.9907069448        0.1628021513
 H         -3.8309152049        0.0396752172       -1.1266664949
 H         -2.4266644741        0.5362112000       -1.8588897973
 H         -3.8886138709        1.1231760408       -2.4070217367
 H         -4.2317530748        2.4184536939       -0.4071019598
 H         -2.6305792446        2.7705445021       -1.0188221479
 H         -3.3221784709        0.8340039620        1.2500690431
 H         -2.4862020743        2.3608832708        1.4158821194
 H         -2.0061582824       -1.2162409213        0.4356635265
 H          0.4787528466       -1.9606452735        0.0983517300
 H          3.0727288067        2.0551953866        0.1331043470
 H          5.5528529190        1.3194985019       -0.2230405822
 H          5.8010963631       -1.2310364673       -0.4685177774
          26
        -41.42397601
 N         -3.2783602255        0.4613264661       -1.6795496580
 C         -3.6389755877        1.5094966625       -0.6872338511
 C         -2.9418146696        1.2765910422        0.6504893082
 C         -1.4633110490        1.1907534024        0.5124097936
 C         -0.6117995980        2.2489070677        0.5197948722
 C          0.7503795154        1.8855649485        0.3464895901
 C          0.9444714145        0.5419790187        0.2027727101
 C          2.2214647046       -0.1057653793        0.0080933000
 C          2.4134600507       -1.4500073373       -0.1439177128
 C          3.7761477330       -1.8162673102       -0.3207795188
 C          4.6203525093       -0.7584764035       -0.3036892511
 S          3.7569386442        0.7172553193       -0.0696917792
 S         -0.5833925373       -0.2908640468        0.2859781749
 Cl        -3.2866347543       -2.3009642700        0.3430338384
 H         -3.4184135112       -0.4775721386       -1.2634963101
 H         -2.2798134424        0.5242866116       -1.9306111732
 H         -3.8323470635        0.5217298869       -2.5498833152
 H         -4.7276593738        1.5327192690       -0.5508864013
 H         -3.3663306001        2.4946947730       -1.0845639144
 H         -3.3045063630        0.3438712694        1.0976032292
 H         -3.1961992881        2.0682742827        1.3657649286
 H         -0.9443428261        3.2689895889        0.6411633753
 H          1.5612558948        2.5975805572        0.3266357686
 H          1.6003787034       -2.1598345115       -0.1312074013
 H          4.1011619632       -2.8383728814       -0.4552261408
 H          5.6874662909       -0.8109221351       -0.4187125587
