  26

 N          1.0673450941       -1.1101815673        0.1014708996
 C          2.5400118576       -1.1783684927        0.0603781978
 C          3.0417095675       -0.6031691863       -1.2649834819
 C          4.5281691275       -0.5411965273       -1.2969547043
 C          5.3382124053        0.5498250845       -1.3709620652
 C          6.7104087531        0.2334097538       -1.3691123904
 C          6.9560711465       -1.1112532617       -1.2880313789
 C          8.2114816112       -1.7908225081       -1.2604869258
 C          8.4499188364       -3.1373073417       -1.1764364862
 C          9.8216088928       -3.4567389368       -1.1772602190
 C         10.6171213644       -2.3596452697       -1.2608488317
 S          9.7077327779       -0.9002793456       -1.3417892820
 S          5.4654989481       -2.0026318471       -1.2165258696
 Cl         0.3118778422        1.8134147087       -0.4079917560
 H          0.7026060223       -1.4191528717        1.0050812851
 H          0.6551095076       -1.6695202378       -0.6494681655
 H          0.7639628195       -0.1136763000       -0.0490315152
 H          2.8727347080       -2.2118358724        0.1670854197
 H          2.9420099129       -0.5827436469        0.8794784345
 H          2.6380831683        0.4034685970       -1.3874008386
 H          2.6896194595       -1.2220858485       -2.0922228002
 H          4.9615494647        1.5555652322       -1.4274051672
 H          7.4984215308        0.9638338457       -1.4252433833
 H          7.6608346844       -3.8649055492       -1.1172271010
 H         10.1991975779       -4.4610622677       -1.1181156662
 H         11.6866429195       -2.3054403432       -1.2818062083
