 xtb: 6.5.1 (fef0646)
          01242315443D

 26 26  0     0  0            999 V2000
    1.0673   -1.1102    0.1015 N   0  0  0  0  0  0  0  0  0  0  0  0
    2.5400   -1.1784    0.0604 C   0  0  0  0  0  0  0  0  0  0  0  0
    3.0417   -0.6032   -1.2650 C   0  0  0  0  0  0  0  0  0  0  0  0
    4.5282   -0.5412   -1.2970 C   0  0  0  0  0  0  0  0  0  0  0  0
    5.3382    0.5498   -1.3710 C   0  0  0  0  0  0  0  0  0  0  0  0
    6.7104    0.2334   -1.3691 C   0  0  0  0  0  0  0  0  0  0  0  0
    6.9561   -1.1113   -1.2880 C   0  0  0  0  0  0  0  0  0  0  0  0
    8.2115   -1.7908   -1.2605 C   0  0  0  0  0  0  0  0  0  0  0  0
    8.4499   -3.1373   -1.1764 C   0  0  0  0  0  0  0  0  0  0  0  0
    9.8216   -3.4567   -1.1773 C   0  0  0  0  0  0  0  0  0  0  0  0
   10.6171   -2.3596   -1.2608 C   0  0  0  0  0  0  0  0  0  0  0  0
    9.7077   -0.9003   -1.3418 S   0  0  0  0  0  0  0  0  0  0  0  0
    5.4655   -2.0026   -1.2165 S   0  0  0  0  0  0  0  0  0  0  0  0
    0.3119    1.8134   -0.4080 Cl  0  0  0  0  0  0  0  0  0  0  0  0
    0.7026   -1.4192    1.0051 H   0  0  0  0  0  0  0  0  0  0  0  0
    0.6551   -1.6695   -0.6495 H   0  0  0  0  0  0  0  0  0  0  0  0
    0.7640   -0.1137   -0.0490 H   0  0  0  0  0  0  0  0  0  0  0  0
    2.8727   -2.2118    0.1671 H   0  0  0  0  0  0  0  0  0  0  0  0
    2.9420   -0.5827    0.8795 H   0  0  0  0  0  0  0  0  0  0  0  0
    2.6381    0.4035   -1.3874 H   0  0  0  0  0  0  0  0  0  0  0  0
    2.6896   -1.2221   -2.0922 H   0  0  0  0  0  0  0  0  0  0  0  0
    4.9615    1.5556   -1.4274 H   0  0  0  0  0  0  0  0  0  0  0  0
    7.4984    0.9638   -1.4252 H   0  0  0  0  0  0  0  0  0  0  0  0
    7.6608   -3.8649   -1.1172 H   0  0  0  0  0  0  0  0  0  0  0  0
   10.1992   -4.4611   -1.1181 H   0  0  0  0  0  0  0  0  0  0  0  0
   11.6866   -2.3054   -1.2818 H   0  0  0  0  0  0  0  0  0  0  0  0
  1  2  1  0  0  0  0
  2  3  1  0  0  0  0
  3  4  1  0  0  0  0
  4  5  2  0  0  0  0
  5  6  4  0  0  0  0
  6  7  2  0  0  0  0
  7  8  1  0  0  0  0
  8  9  2  0  0  0  0
  9 10  4  0  0  0  0
 10 11  2  0  0  0  0
  8 12  1  0  0  0  0
 11 12  1  0  0  0  0
  4 13  1  0  0  0  0
  7 13  1  0  0  0  0
  1 15  1  0  0  0  0
  1 16  1  0  0  0  0
  1 17  1  0  0  0  0
  2 18  1  0  0  0  0
  2 19  1  0  0  0  0
  3 20  1  0  0  0  0
  3 21  1  0  0  0  0
  5 22  1  0  0  0  0
  6 23  1  0  0  0  0
  9 24  1  0  0  0  0
 10 25  1  0  0  0  0
 11 26  1  0  0  0  0
M  END
