 xtb: 6.5.1 (fef0646)
          01242316583D

 14 12  0     0  0            999 V2000
   -0.1903   -1.8134   -0.2995 N   0  0  0  0  0  0  0  0  0  0  0  0
    1.0336   -1.1249    0.2042 C   0  0  0  0  0  0  0  0  0  0  0  0
    1.2818    0.2092   -0.4978 C   0  0  0  0  0  0  0  0  0  0  0  0
    2.4349    0.9087   -0.0484 C   0  0  0  0  0  0  0  0  0  0  0  0
    3.4194    1.4973    0.3415 C   0  0  0  0  0  0  0  0  0  0  0  0
   -2.9031    0.3752    0.1525 Cl  0  0  0  0  0  0  0  0  0  0  0  0
   -0.3658   -2.7015    0.1905 H   0  0  0  0  0  0  0  0  0  0  0  0
   -0.1107   -2.0167   -1.3080 H   0  0  0  0  0  0  0  0  0  0  0  0
   -1.0195   -1.2126   -0.1726 H   0  0  0  0  0  0  0  0  0  0  0  0
    1.9065   -1.7758    0.0778 H   0  0  0  0  0  0  0  0  0  0  0  0
    0.9488   -0.9596    1.2849 H   0  0  0  0  0  0  0  0  0  0  0  0
    0.4006    0.8515   -0.3750 H   0  0  0  0  0  0  0  0  0  0  0  0
    1.3615    0.0402   -1.5786 H   0  0  0  0  0  0  0  0  0  0  0  0
    4.2843    2.0161    0.6833 H   0  0  0  0  0  0  0  0  0  0  0  0
  1  2  1  0  0  0  0
  2  3  1  0  0  0  0
  3  4  1  0  0  0  0
  4  5  3  0  0  0  0
  1  7  1  0  0  0  0
  1  8  1  0  0  0  0
  1  9  1  0  0  0  0
  2 10  1  0  0  0  0
  2 11  1  0  0  0  0
  3 12  1  0  0  0  0
  3 13  1  0  0  0  0
  5 14  1  0  0  0  0
M  END
