 xtb: 6.5.1 (fef0646)
          01242310053D

 27 28  0     0  0            999 V2000
   -4.8838   -0.5891    0.4405 N   0  0  0  0  0  0  0  0  0  0  0  0
   -3.4473   -0.2473    0.6559 C   0  0  0  0  0  0  0  0  0  0  0  0
   -2.6489   -0.2123   -0.6433 C   0  0  0  0  0  0  0  0  0  0  0  0
   -1.2025    0.1359   -0.4401 C   0  0  0  0  0  0  0  0  0  0  0  0
   -0.2439   -0.8627   -0.3123 C   0  0  0  0  0  0  0  0  0  0  0  0
    1.1130   -0.5545   -0.1053 C   0  0  0  0  0  0  0  0  0  0  0  0
    2.0987   -1.5505    0.0157 C   0  0  0  0  0  0  0  0  0  0  0  0
    3.4235   -1.2105    0.2170 C   0  0  0  0  0  0  0  0  0  0  0  0
    3.8025    0.1198    0.3036 C   0  0  0  0  0  0  0  0  0  0  0  0
    2.8612    1.1252    0.1894 C   0  0  0  0  0  0  0  0  0  0  0  0
    1.5046    0.8164   -0.0165 C   0  0  0  0  0  0  0  0  0  0  0  0
    0.5184    1.8095   -0.1389 C   0  0  0  0  0  0  0  0  0  0  0  0
   -0.8054    1.4686   -0.3445 C   0  0  0  0  0  0  0  0  0  0  0  0
   -4.9836   -1.5154   -0.0004 H   0  0  0  0  0  0  0  0  0  0  0  0
   -5.3404    0.0975   -0.1779 H   0  0  0  0  0  0  0  0  0  0  0  0
   -5.4113   -0.6080    1.3271 H   0  0  0  0  0  0  0  0  0  0  0  0
   -2.9981   -0.9713    1.3460 H   0  0  0  0  0  0  0  0  0  0  0  0
   -3.3747    0.7236    1.1602 H   0  0  0  0  0  0  0  0  0  0  0  0
   -3.1007    0.5069   -1.3350 H   0  0  0  0  0  0  0  0  0  0  0  0
   -2.7237   -1.1812   -1.1478 H   0  0  0  0  0  0  0  0  0  0  0  0
   -0.5426   -1.8944   -0.3772 H   0  0  0  0  0  0  0  0  0  0  0  0
    1.8113   -2.5865   -0.0523 H   0  0  0  0  0  0  0  0  0  0  0  0
    4.1683   -1.9861    0.3067 H   0  0  0  0  0  0  0  0  0  0  0  0
    4.8400    0.3721    0.4607 H   0  0  0  0  0  0  0  0  0  0  0  0
    3.1618    2.1577    0.2567 H   0  0  0  0  0  0  0  0  0  0  0  0
    0.8057    2.8458   -0.0729 H   0  0  0  0  0  0  0  0  0  0  0  0
   -1.5484    2.2435   -0.4368 H   0  0  0  0  0  0  0  0  0  0  0  0
  1  2  1  0  0  0  0
  2  3  1  0  0  0  0
  3  4  1  0  0  0  0
  4  5  4  0  0  0  0
  5  6  4  0  0  0  0
  6  7  4  0  0  0  0
  7  8  2  0  0  0  0
  8  9  4  0  0  0  0
  9 10  2  0  0  0  0
  6 11  4  0  0  0  0
 10 11  4  0  0  0  0
 11 12  4  0  0  0  0
  4 13  4  0  0  0  0
 12 13  2  0  0  0  0
  1 14  1  0  0  0  0
  1 15  1  0  0  0  0
  1 16  1  0  0  0  0
  2 17  1  0  0  0  0
  2 18  1  0  0  0  0
  3 19  1  0  0  0  0
  3 20  1  0  0  0  0
  5 21  1  0  0  0  0
  7 22  1  0  0  0  0
  8 23  1  0  0  0  0
  9 24  1  0  0  0  0
 10 25  1  0  0  0  0
 12 26  1  0  0  0  0
 13 27  1  0  0  0  0
M  CHG  1   1   1
M  END
