40
 xtb: 6.5.1 (fef0646)
N           -6.20653838874938       -3.64988922028539        0.12599825548834
C           -7.05126744849516       -2.63987805913695       -0.57621381358346
C           -7.08988527410325       -1.29319224143018        0.14773396184666
C           -5.80279633744377       -0.53926287953092        0.10204708833333
C           -5.68223525971102        0.81480346405261        0.10046644327552
C           -4.33985022068532        1.27931594094753        0.07134484493350
C           -3.40421173616666        0.28176210912360        0.05082838239738
C           -1.97464428917688        0.45404837202817        0.02481973512044
C           -1.30796397746445        1.65032593468775       -0.00815627673102
C            0.09709275579591        1.52548778510132       -0.01905339290639
C            0.54167172571320        0.23051706538135        0.00413040536745
C            1.91779556937391       -0.18098176515159       -0.00090970724416
C            2.36213154638000       -1.47687534118955       -0.00810411266078
C            3.76787504771139       -1.60105222240279       -0.01212225611526
C            4.43283874449943       -0.40405356746878       -0.00603468383720
C            5.86314406766867       -0.24086927297286       -0.00270945526740
C            6.52726502034457        0.95426783274629        0.01892221801789
C            7.94082608387416        0.82312328791312        0.01345307350201
C            8.36039610249760       -0.46350252428406       -0.01331852404215
S            7.01882591525785       -1.55347671350413       -0.05201354994619
S            3.28229654594003        0.90871236755589        0.01566733813731
S           -0.82346723340542       -0.85685768948422        0.03848843801471
S           -4.22075377545971       -1.25873379000065        0.05023211601414
Cl          -3.20726791048396        4.57608423939951       -0.09321851877091
H           -5.25815367023476       -3.27187718859641        0.23228916322399
H           -6.13919857009387       -4.53178425644685       -0.41134076448314
H           -6.57570375550292       -3.85828816030122        1.04948012358009
H           -8.06900717041248       -3.03893159366677       -0.69581690530465
H           -6.68137759434921       -2.48821162886599       -1.60354268581507
H           -7.36388160801043       -1.45184062588432        1.19055180168292
H           -7.88158731027542       -0.66113141935085       -0.27721254032945
H           -6.53473551476807        1.47579375682711        0.07738985928292
H           -4.07986564740067        2.32541102419354        0.02377286919594
H           -1.81446345255312        2.60248081637287       -0.01626954548715
H            0.76858494799304        2.36917294296681       -0.03471482806928
H            1.69109878116491       -2.32047290221983        0.02509122143984
H            4.28101172016342       -2.54938605626728        0.01532379017620
H            6.01663297127801        1.90375439795510       -0.02560598846672
H            8.61170000798123        1.66877766966965       -0.03238501130113
H            9.38514244235565       -0.78325504717190       -0.01941548119216
