  29

 N          2.1763000000        0.5055100000        0.2675100000
 C          2.8432600000       -0.3178600000       -0.7608900000
 C          3.3762300000       -1.6163000000       -0.1771600000
 O          4.4231900000       -1.3569900000        0.7603400000
 C          5.0326100000       -2.4789500000        1.2907600000
 C          4.6314600000       -3.7886500000        0.9889100000
 C          5.2657600000       -4.8805000000        1.5730300000
 C          6.3098700000       -4.6787500000        2.4673700000
 C          6.7448900000       -3.3867400000        2.7794900000
 C          7.8112900000       -3.2041500000        3.6757500000
 C          8.2694700000       -1.9248500000        3.9931200000
 C          7.6681800000       -0.8164300000        3.4135800000
 C          6.6017600000       -0.9823900000        2.5236900000
 C          6.1148900000       -2.2611900000        2.1875000000
 Cl         0.2948800000        1.8645000000       -1.5303400000
 H          1.5787700000        1.2004500000       -0.2632500000
 H          2.8084600000        1.0430000000        0.8640400000
 H          1.4790300000        0.0072000000        0.8306600000
 H          3.6367000000        0.3002700000       -1.1898200000
 H          2.0957100000       -0.5586200000       -1.5188000000
 H          3.7655800000       -2.2110000000       -1.0105700000
 H          2.5559900000       -2.1498800000        0.3180000000
 H          3.8232800000       -4.0101600000        0.3005500000
 H          4.9435100000       -5.8890300000        1.3303400000
 H          6.7865600000       -5.5468800000        2.9172700000
 H          8.2932400000       -4.0599700000        4.1391700000
 H          9.0958700000       -1.8035800000        4.6902800000
 H          8.0268100000        0.1804200000        3.6554700000
 H          6.1537500000       -0.0938800000        2.0894600000
