 xtb: 6.5.1 (fef0646)
          01242317093D

 18 16  0     0  0            999 V2000
   -1.2142    1.6832   -0.1818 N   0  0  0  0  0  0  0  0  0  0  0  0
   -0.0578    0.9508    0.4063 C   0  0  0  0  0  0  0  0  0  0  0  0
    0.2472   -0.3441   -0.3345 C   0  0  0  0  0  0  0  0  0  0  0  0
    1.4326   -1.1035    0.2572 C   0  0  0  0  0  0  0  0  0  0  0  0
    2.7159   -0.3200    0.1731 C   0  0  0  0  0  0  0  0  0  0  0  0
    2.9006    0.4289   -0.9378 O   0  0  0  0  0  0  0  0  0  0  0  0
    3.5269   -0.3937    1.0712 O   0  0  0  0  0  0  0  0  0  0  0  0
   -3.9602   -0.5255   -0.1389 Cl  0  0  0  0  0  0  0  0  0  0  0  0
   -1.4306    2.5455    0.3396 H   0  0  0  0  0  0  0  0  0  0  0  0
   -2.0553    1.0880   -0.1747 H   0  0  0  0  0  0  0  0  0  0  0  0
   -1.0259    1.9397   -1.1584 H   0  0  0  0  0  0  0  0  0  0  0  0
   -0.2574    0.7340    1.4620 H   0  0  0  0  0  0  0  0  0  0  0  0
    0.8281    1.5960    0.4009 H   0  0  0  0  0  0  0  0  0  0  0  0
    0.4562   -0.1157   -1.3852 H   0  0  0  0  0  0  0  0  0  0  0  0
   -0.6473   -0.9773   -0.3429 H   0  0  0  0  0  0  0  0  0  0  0  0
    1.5750   -2.0614   -0.2523 H   0  0  0  0  0  0  0  0  0  0  0  0
    1.2401   -1.3422    1.3070 H   0  0  0  0  0  0  0  0  0  0  0  0
    3.7645    0.8615   -0.8828 H   0  0  0  0  0  0  0  0  0  0  0  0
  1  2  1  0  0  0  0
  2  3  1  0  0  0  0
  3  4  1  0  0  0  0
  4  5  1  0  0  0  0
  5  6  1  0  0  0  0
  5  7  2  0  0  0  0
  1  9  1  0  0  0  0
  1 10  1  0  0  0  0
  1 11  1  0  0  0  0
  2 12  1  0  0  0  0
  2 13  1  0  0  0  0
  3 14  1  0  0  0  0
  3 15  1  0  0  0  0
  4 16  1  0  0  0  0
  4 17  1  0  0  0  0
  6 18  1  0  0  0  0
M  END
