 xtb: 6.5.1 (fef0646)
          02032318153D

 34 34  0     0  0            999 V2000
    3.9700   -0.5285   -0.0225 N   0  0  0  0  0  0  0  0  0  0  0  0
    3.4880    0.6223   -0.8363 C   0  0  0  0  0  0  0  0  0  0  0  0
    2.2813    0.2559   -1.6971 C   0  0  0  0  0  0  0  0  0  0  0  0
    1.0996   -0.1762   -0.8813 C   0  0  0  0  0  0  0  0  0  0  0  0
    0.7865   -1.5210   -0.7369 C   0  0  0  0  0  0  0  0  0  0  0  0
   -0.2789   -1.9174    0.0399 C   0  0  0  0  0  0  0  0  0  0  0  0
    0.3234    0.7623   -0.2162 C   0  0  0  0  0  0  0  0  0  0  0  0
   -0.7420    0.3705    0.5627 C   0  0  0  0  0  0  0  0  0  0  0  0
   -1.0636   -0.9759    0.6990 C   0  0  0  0  0  0  0  0  0  0  0  0
   -2.1566   -1.3752    1.4692 N   0  0  0  0  0  0  0  0  0  0  0  0
   -3.3135   -0.9423    1.3058 N   0  0  0  0  0  0  0  0  0  0  0  0
   -3.6901   -0.1160    0.2459 C   0  0  0  0  0  0  0  0  0  0  0  0
   -3.4437   -0.4919   -1.0716 C   0  0  0  0  0  0  0  0  0  0  0  0
   -3.7933    0.3367   -2.1144 C   0  0  0  0  0  0  0  0  0  0  0  0
   -4.3987    1.5521   -1.8598 C   0  0  0  0  0  0  0  0  0  0  0  0
   -4.6548    1.9356   -0.5575 C   0  0  0  0  0  0  0  0  0  0  0  0
   -4.3054    1.1095    0.4877 C   0  0  0  0  0  0  0  0  0  0  0  0
    6.7221    0.4383    1.9443 Cl  0  0  0  0  0  0  0  0  0  0  0  0
    4.2536   -1.3128   -0.6252 H   0  0  0  0  0  0  0  0  0  0  0  0
    3.2267   -0.8707    0.6015 H   0  0  0  0  0  0  0  0  0  0  0  0
    4.7825   -0.2711    0.5662 H   0  0  0  0  0  0  0  0  0  0  0  0
    4.3068    0.9952   -1.4638 H   0  0  0  0  0  0  0  0  0  0  0  0
    3.2247    1.4516   -0.1698 H   0  0  0  0  0  0  0  0  0  0  0  0
    2.5548   -0.5472   -2.3895 H   0  0  0  0  0  0  0  0  0  0  0  0
    1.9885    1.1013   -2.3299 H   0  0  0  0  0  0  0  0  0  0  0  0
    1.3882   -2.2578   -1.2414 H   0  0  0  0  0  0  0  0  0  0  0  0
   -0.5228   -2.9603    0.1442 H   0  0  0  0  0  0  0  0  0  0  0  0
    0.5641    1.8072   -0.3152 H   0  0  0  0  0  0  0  0  0  0  0  0
   -1.3454    1.1013    1.0721 H   0  0  0  0  0  0  0  0  0  0  0  0
   -2.9672   -1.4381   -1.2599 H   0  0  0  0  0  0  0  0  0  0  0  0
   -3.5926    0.0371   -3.1302 H   0  0  0  0  0  0  0  0  0  0  0  0
   -4.6715    2.2003   -2.6765 H   0  0  0  0  0  0  0  0  0  0  0  0
   -5.1278    2.8836   -0.3588 H   0  0  0  0  0  0  0  0  0  0  0  0
   -4.4966    1.4022    1.5054 H   0  0  0  0  0  0  0  0  0  0  0  0
  1  2  1  0  0  0  0
  2  3  1  0  0  0  0
  3  4  1  0  0  0  0
  4  5  4  0  0  0  0
  5  6  4  0  0  0  0
  4  7  4  0  0  0  0
  7  8  4  0  0  0  0
  6  9  4  0  0  0  0
  8  9  4  0  0  0  0
  9 10  1  0  0  0  0
 10 11  2  0  0  0  0
 11 12  1  0  0  0  0
 12 13  4  0  0  0  0
 13 14  4  0  0  0  0
 14 15  4  0  0  0  0
 15 16  4  0  0  0  0
 12 17  4  0  0  0  0
 16 17  4  0  0  0  0
  1 19  1  0  0  0  0
  1 20  1  0  0  0  0
  1 21  1  0  0  0  0
  2 22  1  0  0  0  0
  2 23  1  0  0  0  0
  3 24  1  0  0  0  0
  3 25  1  0  0  0  0
  5 26  1  0  0  0  0
  6 27  1  0  0  0  0
  7 28  1  0  0  0  0
  8 29  1  0  0  0  0
 13 30  1  0  0  0  0
 14 31  1  0  0  0  0
 15 32  1  0  0  0  0
 16 33  1  0  0  0  0
 17 34  1  0  0  0  0
M  END
