 xtb: 6.5.1 (fef0646)
          01232314163D

 30 28  0     0  0            999 V2000
    0.8776    0.5767    2.1216 N   0  0  0  0  0  0  0  0  0  0  0  0
    2.3101    0.5138    2.4159 C   0  0  0  0  0  0  0  0  0  0  0  0
    2.9925   -0.4608    1.4596 C   0  0  0  0  0  0  0  0  0  0  0  0
    4.5176   -0.3757    1.5058 C   0  0  0  0  0  0  0  0  0  0  0  0
    5.1156   -0.7887    2.8495 C   0  0  0  0  0  0  0  0  0  0  0  0
    6.6420   -0.8146    2.8026 C   0  0  0  0  0  0  0  0  0  0  0  0
    7.2534   -1.1604    4.1581 C   0  0  0  0  0  0  0  0  0  0  0  0
    8.7791   -1.1947    4.1096 C   0  0  0  0  0  0  0  0  0  0  0  0
    9.3833   -1.5050    5.4737 C   0  0  0  0  0  0  0  0  0  0  0  0
    0.4455    1.5562   -0.6028 Cl  0  0  0  0  0  0  0  0  0  0  0  0
    0.3982    1.2035    2.7582 H   0  0  0  0  0  0  0  0  0  0  0  0
    0.4567   -0.3442    2.1903 H   0  0  0  0  0  0  0  0  0  0  0  0
    0.6591    1.0957    0.6767 H   0  0  0  0  0  0  0  0  0  0  0  0
    2.4960    0.2158    3.4562 H   0  0  0  0  0  0  0  0  0  0  0  0
    2.7171    1.5167    2.2675 H   0  0  0  0  0  0  0  0  0  0  0  0
    2.6562   -0.2282    0.4484 H   0  0  0  0  0  0  0  0  0  0  0  0
    2.6767   -1.4803    1.6938 H   0  0  0  0  0  0  0  0  0  0  0  0
    4.8256    0.6454    1.2723 H   0  0  0  0  0  0  0  0  0  0  0  0
    4.9218   -1.0267    0.7279 H   0  0  0  0  0  0  0  0  0  0  0  0
    4.7467   -1.7806    3.1218 H   0  0  0  0  0  0  0  0  0  0  0  0
    4.7994   -0.0898    3.6261 H   0  0  0  0  0  0  0  0  0  0  0  0
    7.0075    0.1638    2.4821 H   0  0  0  0  0  0  0  0  0  0  0  0
    6.9689   -1.5470    2.0608 H   0  0  0  0  0  0  0  0  0  0  0  0
    6.8816   -2.1344    4.4855 H   0  0  0  0  0  0  0  0  0  0  0  0
    6.9345   -0.4205    4.8965 H   0  0  0  0  0  0  0  0  0  0  0  0
    9.1498   -0.2282    3.7605 H   0  0  0  0  0  0  0  0  0  0  0  0
    9.0998   -1.9509    3.3895 H   0  0  0  0  0  0  0  0  0  0  0  0
    9.0974   -0.7461    6.1989 H   0  0  0  0  0  0  0  0  0  0  0  0
   10.4689   -1.5317    5.4151 H   0  0  0  0  0  0  0  0  0  0  0  0
    9.0352   -2.4705    5.8347 H   0  0  0  0  0  0  0  0  0  0  0  0
  1  2  1  0  0  0  0
  2  3  1  0  0  0  0
  3  4  1  0  0  0  0
  4  5  1  0  0  0  0
  5  6  1  0  0  0  0
  6  7  1  0  0  0  0
  7  8  1  0  0  0  0
  8  9  1  0  0  0  0
  1 11  1  0  0  0  0
  1 12  1  0  0  0  0
 10 13  1  0  0  0  0
  2 14  1  0  0  0  0
  2 15  1  0  0  0  0
  3 16  1  0  0  0  0
  3 17  1  0  0  0  0
  4 18  1  0  0  0  0
  4 19  1  0  0  0  0
  5 20  1  0  0  0  0
  5 21  1  0  0  0  0
  6 22  1  0  0  0  0
  6 23  1  0  0  0  0
  7 24  1  0  0  0  0
  7 25  1  0  0  0  0
  8 26  1  0  0  0  0
  8 27  1  0  0  0  0
  9 28  1  0  0  0  0
  9 29  1  0  0  0  0
  9 30  1  0  0  0  0
M  END
