15
0.117
N           -2.28159   0.62092  -0.04350
C           -1.47200  -0.47640  -0.65001
C           -0.29628  -0.89311   0.22159
S            0.89919   0.42598   0.42763
C            2.30553  -0.24843  -0.41901
H           -2.67883   0.33253   0.86188
H           -3.06622   0.89779  -0.65195
H           -1.70634   1.45924   0.12328
H           -1.10572  -0.15125  -1.63252
H           -2.12836  -1.33668  -0.84318
H            0.20742  -1.77332  -0.18682
H           -0.64951  -1.17433   1.21702
H            2.06687  -0.45778  -1.45984
H            2.64022  -1.16455   0.06420
H            3.12311   0.47042  -0.39118
