13

N          1.25091        0.24138        0.07041
C          2.68375        0.31682        0.20631
C          3.42922        1.07504       -0.85461
C          3.50126       -0.42384       -0.81139
Cl        -0.36695       -1.79300       -1.03778
H          0.69337        0.63130        0.82773
H          0.90480       -0.75528       -0.02640
H          0.87785        0.58338       -0.82477
H          3.07715        0.33471        1.21918
H          4.31512        1.62879       -0.55990
H          2.88855        1.52325       -1.68007
H          4.42755       -0.88216       -0.48336
H          2.99304       -0.98666       -1.58848
