35

N          2.84473        1.34159       -3.53922
C          2.30447        1.77054       -2.22069
C          2.84968        0.87350       -1.10821
C          4.35489        0.91511       -1.02228
C          5.01810        2.12383       -0.77422
C          6.41089        2.16549       -0.69763
C          7.16942        0.99829       -0.83602
C          8.63733        1.01033       -0.79424
C          9.37068        1.88036       -0.08091
C         10.84157        1.94598       -0.11805
C         11.57547        1.58400       -1.25699
C         12.96128        1.74047       -1.29229
C         13.63384        2.26970       -0.19185
C         12.91522        2.63797        0.94519
C         11.52728        2.47831        0.98169
C          6.50594       -0.20625       -1.09611
C          5.11147       -0.25118       -1.18594
H          2.49530        1.93325       -4.30215
H          2.60073        0.36674       -3.75653
H          3.87579        1.40506       -3.54866
H          1.21413        1.70432       -2.28597
H          2.58983        2.81852       -2.09428
H          2.50817       -0.15571       -1.27295
H          2.43580        1.18711       -0.14158
H          4.47046        3.05201       -0.62280
H          6.89571        3.12440       -0.52409
H          9.12368        0.24560       -1.39664
H          8.89753        2.61086        0.56956
H         11.07997        1.19764       -2.14276
H         13.51809        1.46028       -2.18345
H         14.70945        2.40267       -0.22376
H         13.43711        3.05765        1.80170
H         10.99033        2.78005        1.87755
H          7.07453       -1.12849       -1.21147
H          4.63640       -1.21438       -1.36511
