19
0.0
N            0.38152  -1.79830  -0.00529
C            1.54374  -0.86543  -0.00570
C            1.50176   0.07511  -1.22986
C            0.83135   1.38594  -0.76017
C            0.77417   1.34198   0.78589
C            1.51314   0.06287   1.22769
Cl          -2.57760   0.04642  -0.00432
H            0.37918  -2.40131  -0.84317
H           -0.50509  -1.26121  -0.00131
H            0.38391  -2.40672   0.82852
H            2.47154  -1.46043  -0.01259
H            0.95120  -0.39100  -2.05503
H            2.51634   0.26748  -1.60034
H           -0.17669   1.48185  -1.18360
H            1.38896   2.26256  -1.11386
H           -0.26695   1.31898   1.13165
H            1.22034   2.23958   1.23376
H            1.01309  -0.42815   2.07085
H            2.53239   0.29717   1.55771
