19
 xtb: 6.5.1 (fef0646)
N            0.01825604527259        1.18685611344928       -0.53339647470994
C           -0.80156842074366        0.59203792008343        0.56687792701587
C           -2.28171165611946        0.99266669030079        0.39556166665909
C           -2.93823238792623       -0.13638002777339       -0.42763375635103
C           -2.01150252607978       -1.37412569714092       -0.32281999687237
C           -0.78402000255033       -0.95282550577868        0.51657871704176
Cl           3.53327083595877       -0.22786016903776       -0.01006489943470
H            1.06562983772862        0.82115284864324       -0.41291542606717
H            0.09592108712921        2.17794135951310       -0.49211573787430
H           -0.24531231348600        0.84413089453352       -1.43231264085851
H           -0.39104687900301        0.92550636388957        1.54252640649662
H           -2.30422853151648        1.96445234867456       -0.13499655207619
H           -2.72959558311165        1.13006725609946        1.35179883347271
H           -3.04389216909413        0.16988018227213       -1.47535960895099
H           -3.92725307247130       -0.33689939398425       -0.05175558231634
H           -1.69360583354948       -1.71235336228948       -1.31889737523952
H           -2.53270530970621       -2.22433412848510        0.12905913020329
H            0.15874189207999       -1.34958584512366        0.09374169128219
H           -0.84561490238580       -1.38125240386850        1.53456021822840
