19
 xtb: 6.5.1 (fef0646)
N            0.21095586252039        1.08326975605560       -0.48246575303068
C           -0.70197323959870        0.54823674726388        0.57396330702432
C           -2.16162234148568        1.00938257191929        0.36023085405827
C           -2.86389614689254       -0.11165942756178       -0.43645702892580
C           -1.97821232266586       -1.37772637466707       -0.32040282779685
C           -0.74919129478371       -0.99684986045347        0.53499608712960
Cl           3.14275011160986       -0.11658496760027       -0.03837680783299
H            1.11769479311574        0.77929430593070       -0.38465625178535
H            0.16151722425193        2.14967961319180       -0.48097189439762
H           -0.18301993294501        0.81891449622407       -1.42286704274425
H           -0.36809647281088        0.90927071601555        1.54824090920479
H           -2.25377159245968        1.96514661211039       -0.15453386651216
H           -2.69739001224897        1.15066460235155        1.33808460799859
H           -3.02254181032254        0.17303472643699       -1.47898453540932
H           -3.90649151071134       -0.31831306560215       -0.05015541464092
H           -1.68279338270359       -1.71533785114575       -1.31720460557695
H           -2.53245514439301       -2.22090949089278        0.12719489259971
H            0.16634625353399       -1.37246313931295        0.10300376579707
H           -0.84432365274774       -1.39150881749002        1.54027453780771
