 xtb: 6.5.1 (fef0646)
          02032317513D

 19 18  0     0  0            999 V2000
    0.1251    1.1309   -0.5020 N   0  0  0  0  0  0  0  0  0  0  0  0
   -0.7538    0.5697    0.5679 C   0  0  0  0  0  0  0  0  0  0  0  0
   -2.2238    1.0026    0.3729 C   0  0  0  0  0  0  0  0  0  0  0  0
   -2.9095   -0.1259   -0.4272 C   0  0  0  0  0  0  0  0  0  0  0  0
   -2.0008   -1.3762   -0.3222 C   0  0  0  0  0  0  0  0  0  0  0  0
   -0.7715   -0.9755    0.5237 C   0  0  0  0  0  0  0  0  0  0  0  0
    3.3454   -0.1677   -0.0256 Cl  0  0  0  0  0  0  0  0  0  0  0  0
    1.0956    0.7973   -0.3950 H   0  0  0  0  0  0  0  0  0  0  0  0
    0.1328    2.1626   -0.4846 H   0  0  0  0  0  0  0  0  0  0  0  0
   -0.2094    0.8315   -1.4270 H   0  0  0  0  0  0  0  0  0  0  0  0
   -0.3816    0.9168    1.5454 H   0  0  0  0  0  0  0  0  0  0  0  0
   -2.2791    1.9642   -0.1482 H   0  0  0  0  0  0  0  0  0  0  0  0
   -2.7135    1.1433    1.3435 H   0  0  0  0  0  0  0  0  0  0  0  0
   -3.0387    0.1700   -1.4756 H   0  0  0  0  0  0  0  0  0  0  0  0
   -3.9182   -0.3283   -0.0465 H   0  0  0  0  0  0  0  0  0  0  0  0
   -1.6902   -1.7128   -1.3187 H   0  0  0  0  0  0  0  0  0  0  0  0
   -2.5335   -2.2235    0.1274 H   0  0  0  0  0  0  0  0  0  0  0  0
    0.1608   -1.3615    0.0973 H   0  0  0  0  0  0  0  0  0  0  0  0
   -0.8462   -1.3866    1.5368 H   0  0  0  0  0  0  0  0  0  0  0  0
  1  2  1  0  0  0  0
  2  3  1  0  0  0  0
  3  4  1  0  0  0  0
  4  5  1  0  0  0  0
  2  6  1  0  0  0  0
  5  6  1  0  0  0  0
  1  8  1  0  0  0  0
  1  9  1  0  0  0  0
  1 10  1  0  0  0  0
  2 11  1  0  0  0  0
  3 12  1  0  0  0  0
  3 13  1  0  0  0  0
  4 14  1  0  0  0  0
  4 15  1  0  0  0  0
  5 16  1  0  0  0  0
  5 17  1  0  0  0  0
  6 18  1  0  0  0  0
  6 19  1  0  0  0  0
M  END
