 xtb: 6.5.1 (fef0646)
          01242310043D

 23 22  0     0  0            999 V2000
   -2.3880    1.7255   -0.6622 N   0  0  0  0  0  0  0  0  0  0  0  0
   -1.3259    2.0505    0.3267 C   0  0  0  0  0  0  0  0  0  0  0  0
   -0.1201    1.1744    0.1853 C   0  0  0  0  0  0  0  0  0  0  0  0
   -0.2402   -0.2060    0.2440 C   0  0  0  0  0  0  0  0  0  0  0  0
    0.8679   -1.0185    0.1174 C   0  0  0  0  0  0  0  0  0  0  0  0
    2.1374   -0.4753   -0.0692 C   0  0  0  0  0  0  0  0  0  0  0  0
    3.2992   -1.3598   -0.2031 C   0  0  0  0  0  0  0  0  0  0  0  0
    4.5582   -0.9891   -0.0097 C   0  0  0  0  0  0  0  0  0  0  0  0
    2.2521    0.9122   -0.1343 C   0  0  0  0  0  0  0  0  0  0  0  0
    1.1412    1.7219   -0.0078 C   0  0  0  0  0  0  0  0  0  0  0  0
   -3.5019   -1.5035    0.1463 Cl  0  0  0  0  0  0  0  0  0  0  0  0
   -2.0169    1.7664   -1.6242 H   0  0  0  0  0  0  0  0  0  0  0  0
   -3.1918    2.3757   -0.6037 H   0  0  0  0  0  0  0  0  0  0  0  0
   -2.7498    0.7671   -0.5115 H   0  0  0  0  0  0  0  0  0  0  0  0
   -1.7220    1.9581    1.3447 H   0  0  0  0  0  0  0  0  0  0  0  0
   -1.0314    3.1008    0.2175 H   0  0  0  0  0  0  0  0  0  0  0  0
   -1.2158   -0.6435    0.3792 H   0  0  0  0  0  0  0  0  0  0  0  0
    0.7589   -2.0898    0.1652 H   0  0  0  0  0  0  0  0  0  0  0  0
    3.0919   -2.3850   -0.4669 H   0  0  0  0  0  0  0  0  0  0  0  0
    4.8107    0.0123    0.2804 H   0  0  0  0  0  0  0  0  0  0  0  0
    5.3739   -1.6794   -0.1182 H   0  0  0  0  0  0  0  0  0  0  0  0
    3.2191    1.3569   -0.2993 H   0  0  0  0  0  0  0  0  0  0  0  0
    1.2471    2.7932   -0.0604 H   0  0  0  0  0  0  0  0  0  0  0  0
  1  2  1  0  0  0  0
  2  3  1  0  0  0  0
  3  4  4  0  0  0  0
  4  5  4  0  0  0  0
  5  6  4  0  0  0  0
  6  7  1  0  0  0  0
  7  8  2  0  0  0  0
  6  9  4  0  0  0  0
  3 10  4  0  0  0  0
  9 10  4  0  0  0  0
  1 12  1  0  0  0  0
  1 13  1  0  0  0  0
  1 14  1  0  0  0  0
  2 15  1  0  0  0  0
  2 16  1  0  0  0  0
  4 17  1  0  0  0  0
  5 18  1  0  0  0  0
  7 19  1  0  0  0  0
  8 20  1  0  0  0  0
  8 21  1  0  0  0  0
  9 22  1  0  0  0  0
 10 23  1  0  0  0  0
M  END
