33
0.0
N           -5.10743   1.33904  -1.24937
C           -5.48584   0.06237  -0.58035
C           -4.73679  -0.15433   0.73266
C           -3.25300  -0.27565   0.54786
C           -2.69063  -1.47454   0.12341
C           -1.33253  -1.59072  -0.06613
C           -2.41502   0.81249   0.76721
C           -1.05598   0.70481   0.57853
C           -0.49040  -0.49977   0.15984
N            0.85756  -0.61288  -0.02263
N            1.63164   0.39252   0.16156
C            2.98367   0.26975   0.01836
C            3.55823  -0.96108  -0.30674
C            4.92197  -1.08100  -0.44538
C            5.73688   0.02174  -0.26383
C            5.18289   1.24771   0.05785
C            3.82007   1.37517   0.19909
H           -5.31781   2.14913  -0.64725
H           -5.61520   1.47243  -2.13766
H           -4.09840   1.36183  -1.46058
H           -5.28606  -0.77379  -1.26082
H           -6.56964   0.05437  -0.40770
H           -5.10638  -1.05236   1.24141
H           -4.94817   0.67516   1.41558
H           -3.33195  -2.32245  -0.05235
H           -0.89788  -2.52242  -0.38864
H           -2.83918   1.74707   1.09531
H           -0.40447   1.54388   0.75504
H            2.91090  -1.81095  -0.44373
H            5.35653  -2.03648  -0.69528
H            6.80609  -0.07452  -0.37282
H            5.82131   2.10610   0.19873
H            3.37756   2.32493   0.45029
