18
 xtb: 6.5.1 (fef0646)
N           -0.87736570863018        0.67122465526008       -0.63540790507958
C           -0.47988706469275        1.42238437633524        0.59301141081766
C            0.89047207185582        2.08770547771118        0.43394996084361
C            2.06407448137940        1.15746480311762        0.75211720950593
C            2.11089252032342       -0.10328476846168       -0.07269849186658
O            2.30962497060943       -1.25080132228656        0.62087241404825
O            1.99685581817568       -0.07295749788017       -1.28109581376393
Cl          -3.23478255802108       -1.45790558084464       -0.10023203228809
H           -1.59102791062357        0.05224279759308       -0.53282516667861
H            0.00373954278798        0.26055630719342       -1.03166205229649
H           -1.13273839838448        1.40949352090014       -1.40179302013948
H           -0.42406377995360        0.73177142364002        1.41522383850562
H           -1.21651613825262        2.17860870706562        0.83832617250790
H            0.99117148657331        2.98657487515462        1.09989979332619
H            1.03745597490602        2.48991104572023       -0.57205326138539
H            2.07012862526321        0.87438700834406        1.81125599094527
H            3.05314345509208        1.67909296914143        0.61270912113376
H            2.31681384351586       -1.98854012097825        0.00411860936508
