18
0.0
N           -1.41606   1.17950   0.23613
C           -1.63410  -0.17139  -0.35595
C           -0.72416  -1.24871   0.23966
C            0.73850  -1.22820  -0.23908
C            1.60600  -0.11465   0.35631
O            1.38458   1.15993  -0.21892
H           -1.65143   1.19294   1.23320
H           -1.96080   1.90398  -0.24187
H           -0.41374   1.39533   0.13540
H           -1.48344  -0.12394  -1.44085
H           -2.68841  -0.44163  -0.21485
H           -1.15400  -2.23321   0.01145
H           -0.74829  -1.17561   1.33189
H            0.76521  -1.15941  -1.33100
H            1.19990  -2.19508   0.00071
H            2.67743  -0.34831   0.27920
H            1.40112  -0.00810   1.42861
H            1.92050   1.31459  -1.00951
