18
 xtb: 6.5.1 (fef0646)
N            0.03631245945468       -1.48779191460209       -1.07287599453786
C            1.32900952710734       -1.12750741321316       -0.42136448240682
C            1.66983738820582        0.36694210749800       -0.52839292688025
C            0.70491601801690        1.23060454018500        0.28566054408332
C            3.11826116559291        0.61503730685035       -0.09918637933841
Cl          -2.83491206604385        0.27435227220144        0.82455531619919
H           -0.24959994470387       -2.44412222012672       -0.97030771622581
H           -0.07192631468844       -1.15162402272645       -2.00338984037900
H           -0.79889286583530       -0.94114873330352       -0.52659061655632
H            2.06084524726267       -1.72172714094863       -0.88642839571801
H            1.29355879286792       -1.40454509387212        0.64752700799074
H            1.56301341046278        0.65196392804106       -1.58801804718227
H           -0.32292387398934        1.16958298836290       -0.05546082514625
H            0.98999761116350        2.30917018331436        0.21508388731301
H            0.73277479854263        0.98244621439928        1.34010417521337
H            3.80147902533592       -0.00116463508192       -0.69230218128279
H            3.25123455933651        0.32357196556831        0.94698490884019
H            3.40020688170233        1.64527350842235       -0.20412856246991
