 xtb: 6.5.1 (fef0646)
          02032317523D

 18 16  0     0  0            999 V2000
   -0.0687   -1.4179   -0.9935 N   0  0  0  0  0  0  0  0  0  0  0  0
    1.2661   -1.1071   -0.4028 C   0  0  0  0  0  0  0  0  0  0  0  0
    1.6525    0.3744   -0.5232 C   0  0  0  0  0  0  0  0  0  0  0  0
    0.7114    1.2677    0.2848 C   0  0  0  0  0  0  0  0  0  0  0  0
    3.1067    0.5922   -0.0983 C   0  0  0  0  0  0  0  0  0  0  0  0
   -2.6962    0.1926    0.7483 Cl  0  0  0  0  0  0  0  0  0  0  0  0
   -0.2794   -2.4252   -0.9576 H   0  0  0  0  0  0  0  0  0  0  0  0
   -0.1121   -1.1225   -1.9782 H   0  0  0  0  0  0  0  0  0  0  0  0
   -0.8260   -0.9262   -0.4897 H   0  0  0  0  0  0  0  0  0  0  0  0
    2.0315   -1.7228   -0.8898 H   0  0  0  0  0  0  0  0  0  0  0  0
    1.2848   -1.3990    0.6527 H   0  0  0  0  0  0  0  0  0  0  0  0
    1.5592    0.6524   -1.5871 H   0  0  0  0  0  0  0  0  0  0  0  0
   -0.3206    1.1874   -0.0580 H   0  0  0  0  0  0  0  0  0  0  0  0
    1.0006    2.3176    0.2146 H   0  0  0  0  0  0  0  0  0  0  0  0
    0.7309    0.9932    1.3399 H   0  0  0  0  0  0  0  0  0  0  0  0
    3.7939   -0.0143   -0.6903 H   0  0  0  0  0  0  0  0  0  0  0  0
    3.2464    0.3194    0.9481 H   0  0  0  0  0  0  0  0  0  0  0  0
    3.4038    1.6364   -0.2074 H   0  0  0  0  0  0  0  0  0  0  0  0
  1  2  1  0  0  0  0
  2  3  1  0  0  0  0
  3  4  1  0  0  0  0
  3  5  1  0  0  0  0
  1  7  1  0  0  0  0
  1  8  1  0  0  0  0
  1  9  1  0  0  0  0
  2 10  1  0  0  0  0
  2 11  1  0  0  0  0
  3 12  1  0  0  0  0
  4 13  1  0  0  0  0
  4 14  1  0  0  0  0
  4 15  1  0  0  0  0
  5 16  1  0  0  0  0
  5 17  1  0  0  0  0
  5 18  1  0  0  0  0
M  END
