18
 xtb: 6.5.1 (fef0646)
N           -2.95290711402297       -1.07406884372887       -1.04258361260030
C           -1.72382924669587       -0.33379617499940       -1.45794410665014
C           -1.19278349545154        0.56604886659000       -0.34666536151488
C           -0.00251619205328        1.43305871308160       -0.76846092808706
C            1.25280654972214        0.62988749328919       -1.07209529282916
I            2.08255905681326       -0.43707797182378        0.60808163945418
Cl          -5.25755908020421        1.19217268035476       -0.12306227637399
H           -2.68947549957560       -1.70670624954655       -0.19949039078896
H           -3.24321564798568       -1.72895117753801       -1.76866286777862
H           -3.65605652426057       -0.47019263067364       -0.75171643705528
H           -1.90756815410373        0.22903559752526       -2.33701602038864
H           -0.88897014281762       -1.04993271153076       -1.72838012134897
H           -0.90921289148595       -0.01364057803119        0.54214342694006
H           -2.01930128683823        1.20972769197464       -0.00463083387104
H            0.22085852587661        2.18117051733295        0.03219746793030
H           -0.28777381019739        2.05277256766135       -1.63462561581371
H            2.07310052035794        1.31522321840406       -1.38922868873151
H            1.09332403225504       -0.05682927659487       -1.86671613169231
