18
 xtb: 6.5.1 (fef0646)
N           -0.17410356566126       -1.35653390771992       -0.85456636544475
C           -1.01317017562201       -1.31979569561680        0.37599341127975
C           -1.16748751997603        0.08688533346198        0.94984331727940
C           -1.76587482386855        1.09518425936484       -0.03417166070895
C           -3.15432214374242        0.71123289747235       -0.52285800558383
Cl           3.04292394598811        0.43406879545613        0.13118102952094
H           -0.48892156813927       -0.78175869311135       -1.60773276750038
H            0.12492727857295       -2.26347918547837       -1.15951291089930
H            0.82760320294180       -0.85898793977864       -0.59559333450438
H           -0.55663042069963       -1.97477215750090        1.13221296152003
H           -1.93862170914487       -1.73762951276058        0.09709754732656
H           -0.19585844006359        0.46595460879012        1.31350326375583
H           -1.80208205206409        0.03681588493896        1.84347737620692
H           -1.08887532942783        1.22591640962647       -0.88786284438376
H           -1.80692383508827        2.09269694164953        0.43765597946484
H           -3.58278820367539        1.46956021361319       -1.17920073653999
H           -3.84138245125161        0.57500893740617        0.31622315442352
H           -3.13436156941379       -0.22738889382278       -1.07907164446312
