  25

 N          2.9768500000       -0.0502300000       -1.2892200000
 C          2.5074300000        1.1227300000       -0.5033300000
 C          3.1095600000        1.1248400000        0.9032200000
 C          4.6057900000        1.2432100000        0.8823400000
 C          5.3677500000        2.3916700000        0.8839700000
 C          6.7640200000        2.1079100000        0.8770700000
 C          7.0417000000        0.7541300000        0.8681300000
 C          8.3562800000        0.1538700000        0.8834600000
 C          9.4878300000        0.6791000000        1.4832400000
 C         10.6472500000       -0.1241000000        1.2788400000
 C         10.3689700000       -1.2438700000        0.5297000000
 S          8.7191600000       -1.3246700000        0.0885500000
 S          5.5892700000       -0.1593000000        0.8702500000
 H          2.5808200000       -0.0574000000       -2.2377300000
 H          2.7309800000       -0.9412100000       -0.8377400000
 H          4.0042200000       -0.0394700000       -1.3848000000
 H          1.4162900000        1.0534900000       -0.4608600000
 H          2.7906200000        2.0136000000       -1.0728600000
 H          2.8007700000        0.2231800000        1.4464600000
 H          2.6956800000        1.9756100000        1.4593000000
 H          4.9584200000        3.3966100000        0.9062100000
 H          7.5342800000        2.8717800000        0.8820900000
 H          9.4932300000        1.6027200000        2.0501800000
 H         11.6343300000        0.1105100000        1.6604100000
 H         11.0576200000       -2.0193100000        0.2214900000
