29
0.0
N           -1.33375   1.35686  -1.45014
C           -1.90221   2.41186  -0.57472
C           -1.78066   2.02817   0.89077
O           -0.41843   1.79298   1.25627
C            0.02023   0.46936   1.09913
C           -0.67995  -0.62436   1.58385
C           -0.22849  -1.92327   1.37215
C            0.92459  -2.15927   0.67523
C            1.68781  -1.08726   0.16916
C            2.87786  -1.29053  -0.56313
C            3.58741  -0.22829  -1.04720
C            3.14731   1.07873  -0.82168
C            2.00008   1.30759  -0.11406
C            1.24590   0.23682   0.39508
Cl          -2.96521  -1.65581  -0.94839
H           -1.84759   0.46321  -1.33481
H           -0.35752   1.17307  -1.17835
H           -1.34972   1.61328  -2.45151
H           -2.94806   2.60342  -0.84366
H           -1.36482   3.35124  -0.74716
H           -2.37303   1.13446   1.10588
H           -2.15677   2.82288   1.54561
H           -1.57468  -0.45952   2.15817
H           -0.79734  -2.75283   1.76164
H            1.26448  -3.16798   0.50869
H            3.21805  -2.29780  -0.73701
H            4.49490  -0.39649  -1.60573
H            3.71856   1.90921  -1.20545
H            1.66025   2.31286   0.07366
