23
 xtb: 6.5.1 (fef0646)
N           -2.41938729920634       -0.51358358161295       -0.19244214817756
C           -1.74777391212360        0.45872203731716        0.70790312372298
C           -0.28994309986659        0.20579026702623        0.86055642798834
C            0.57763359483276        0.37164280290396       -0.13518424267095
C            2.02160912876572        0.11763949679280       -0.02851493167490
C            2.53271412547122       -0.84294535116150        0.84279691975320
C            3.89245734758332       -1.07136683867984        0.92441363099233
C            4.76635283570605       -0.34437915108384        0.13969694096857
C            4.27756144745369        0.60939553415442       -0.73151064333497
C            2.91819550419359        0.83633227914743       -0.81819082257742
Cl          -5.63146327188682        0.10459281819479       -0.56680054964926
H           -3.40539677196083       -0.34703069458527       -0.31230169182433
H           -2.29184009632887       -1.49696144909824        0.18246004259734
H           -1.96014280344500       -0.53227138196802       -1.13146099827877
H           -2.23348264892653        0.45432049095476        1.67857209830486
H           -1.87536378536459        1.46381952651936        0.30060657599088
H            0.06413238117461       -0.21148294788735        1.80460275038750
H            0.23900258781220        0.80444061920015       -1.04453241251867
H            1.87149900949982       -1.40227451839780        1.46900063432013
H            4.28676919957024       -1.81579887730970        1.60490218592810
H            5.83896019973703       -0.54150894313814        0.18431543191772
H            4.96835389758684        1.15524519618186       -1.37024654061603
H            2.54958572131309        1.58121824063851       -1.49809995030878
