  14

 N          0.9679044332        0.0551987575        0.0937308110
 C          2.4658767741        0.0600240362        0.0757661067
 C          2.9872022365        0.4519497611       -1.3002714131
 C          4.5130803325        0.4523028505       -1.3057929088
 H          0.6030571055       -0.2078083519        1.0177616353
 H          0.6141623018       -0.6116479893       -0.6053804129
 H          0.6144647077        0.9904110951       -0.1492503587
 H          2.8176822731       -0.9374454977        0.3428957371
 H          2.8180210296        0.7667971002        0.8284524651
 H          2.6284869034        1.4482681553       -1.5647481441
 H          2.6271447433       -0.2545764100       -2.0502471522
 H          4.9019814319        1.1632657087       -0.5824353575
 H          4.8799678615        0.7322474981       -2.2880111159
 H          4.9006178659       -0.5338967137       -1.0666598919
