26
2.61
N           -2.04668   1.76269  -0.20028
C           -1.18823   2.31923   0.88192
C            0.29273   2.30661   0.51289
C            0.83620   0.92538   0.28036
C            1.01209   0.47348  -0.96003
C            1.56847  -0.87516  -1.30265
C            1.60477  -1.84086  -0.10565
C            2.05076  -1.12242   1.17367
C            1.13301   0.07174   1.48525
Cl          -1.83277  -1.67668  -0.69390
H           -1.88079   2.25449  -1.09450
H           -3.05487   1.84628   0.02081
H           -1.85078   0.76085  -0.35965
H           -1.34613   1.74729   1.80362
H           -1.51155   3.34299   1.11157
H            0.88594   2.79495   1.29660
H            0.44980   2.91338  -0.38711
H            0.74498   1.12419  -1.77822
H            2.58609  -0.74843  -1.69425
H            0.98976  -1.31427  -2.12714
H            2.25975  -2.69793  -0.31667
H            0.60668  -2.26950   0.05021
H            3.08190  -0.76707   1.04997
H            2.08113  -1.82179   2.02126
H            1.57457   0.69940   2.27018
H            0.18430  -0.29172   1.89895
