18

N          1.08637       -0.06167        0.43365
C          2.55461       -0.03198        0.39720
C          3.03689        1.34769        0.81264
C          4.56259        1.43039        0.76215
C          5.04660        2.81052        1.17560
Br         6.98836        2.87204        1.10616
Cl        -0.09931       -0.58301       -2.07272
H          0.73350       -0.90712       -0.07090
H          0.67627        0.59720       -0.26076
H          0.60199        0.02307        1.32796
H          2.86192       -0.27012       -0.62465
H          2.90920       -0.81612        1.07278
H          2.68788        1.57177        1.82670
H          2.60809        2.10799        0.14745
H          4.90940        1.20001       -0.25330
H          4.99279        0.66695        1.42250
H          4.76161        3.05005        2.20367
H          4.68046        3.59087        0.50304
