  16

 N          1.0105590444       -0.1658174363       -0.0586606501
 C          2.4612686541       -0.2687165640       -0.1129753614
 C          2.9723953763       -1.5644265793       -0.7366743774
 S          2.3758956098       -1.7195645175       -2.4649231402
 C          3.3245798707       -3.1830158159       -2.9490785667
 Cl         0.2428820720        2.2909495645        1.3742780154
 H          0.5878074670        1.1657326522        0.6973183286
 H          0.6115484398       -0.9474525627        0.4527535718
 H          0.6243821932       -0.1699115754       -0.9978429612
 H          2.8453907995       -0.1903621905        0.9079020493
 H          2.8317545973        0.5824700656       -0.6878365031
 H          2.6139119117       -2.4343792402       -0.1815738776
 H          4.0621396626       -1.5718056611       -0.7605943949
 H          3.0513227299       -3.4065646086       -3.9749913925
 H          3.0636806721       -4.0175400270       -2.3036314098
 H          4.3872708996       -2.9644955038       -2.8853993301
