15

N          3.16609       -0.45327       -1.19052
C          2.43065        0.04378       -0.00639
C          2.86902       -0.64976        1.23540
C          3.46565       -0.11403        2.36066
C          3.71760       -1.10161        3.35812
C          3.31588       -2.35661        2.95980
S          2.63428       -2.34228        1.39426
H          2.84600       -0.00622       -2.05622
H          3.03163       -1.46859       -1.28058
H          4.17465       -0.28832       -1.08597
H          1.36523       -0.11650       -0.20124
H          2.61917        1.12063        0.04540
H          3.70231        0.93751        2.48824
H          4.16477       -0.90232        4.32644
H          3.38493       -3.28050        3.52006
