12
 xtb: 6.5.1 (fef0646)
N            0.39538773469336       -1.67526574642999        0.23818104496220
C            1.44347772559586       -0.79356512436080       -0.35196135527939
C            1.49478226678905        0.57610966504474        0.31139986667851
F            2.58193763199810        1.28364989385780       -0.07927262454340
Cl          -2.72902289865901        0.22342325962941       -0.05611118960228
H            0.25653685977232       -2.53665243324054       -0.27999081184524
H           -0.55666839807353       -1.15604496828364        0.16827205035389
H            0.52273790210558       -1.85842778828616        1.21451393328467
H            1.27043519427452       -0.64092100913629       -1.41009855923505
H            2.39708413764441       -1.31221349600778       -0.25939416371086
H            1.67479808757870        0.41866368121150        1.43538547894069
H            0.59626601914554        1.11612661760394        0.23874735000596
