18
 xtb: 6.5.1 (fef0646)
N           -1.81307031100709        2.03285475718697        0.24327040549337
C           -0.58650020104954        1.81794864556103       -0.57913377621289
C            0.35143139428615        0.77343211189531        0.01287623484887
C            1.63505439399505        0.61643433828184       -0.79226554258148
C            2.56106775100521       -0.39643600336470       -0.17680208544324
O            3.53773498423345        0.09310663088298        0.62109332519522
O            2.39197731415015       -1.57676911029048       -0.38823787266050
Cl          -3.35709030655999       -1.50489880241463        0.36758052548111
H           -2.34041345656125        1.02057457032313        0.30709069702574
H           -2.51191739445067        2.60379256564943       -0.17081033520101
H           -1.64156114594553        2.23087487367320        1.19799636629589
H           -0.11684390787720        2.75988350547893       -0.64824789096381
H           -0.87284760129191        1.50238228327736       -1.59414517361646
H           -0.14597038856124       -0.21063721173551        0.10069508327012
H            0.60151634260003        1.04135804079444        1.04874511400590
H            2.14796372089841        1.57408608127430       -0.86521732361639
H            1.39856902491070        0.30773884031805       -1.81647286477497
H            4.05635328655774       -0.64200702819859        0.96645499264387
