  48

 N         -7.6440191184        1.0879227056        0.1729393302
 C         -8.0352457132       -0.2799261572       -0.2628394361
 C         -7.2692986996       -0.7081960208       -1.5122339576
 C         -5.8096392207       -0.8537032680       -1.2505668423
 C         -5.1885364358       -2.0023976365       -0.8749598264
 C         -3.7922799696       -1.8564056665       -0.6635610430
 C         -3.3326259565       -0.5873803350       -0.8763298086
 C         -1.9648400884       -0.1607094250       -0.7315742427
 C         -1.4849362015        1.0949949890       -0.9718665612
 C         -0.0905677509        1.2453176421       -0.7484369051
 C          0.5962140291        2.5482826959       -0.9663077526
 C          0.5216778512        0.0814870984       -0.3206692717
 C          1.9192933063       -0.0907115745       -0.0000223903
 C          2.5302699032       -1.2572289313        0.4189518178
 C          1.8582263071       -2.4809058152        0.5982519137
 N          1.2707117675       -3.4730144252        0.7358068805
 C          3.9416096580       -1.1173122431        0.6679590416
 C          4.7326681822       -2.1963669670        1.1044818464
 N          5.4135643331       -3.0645862275        1.4659550383
 C          4.4239474142        0.1570025910        0.4438458354
 C          5.7894345569        0.6057790185        0.6133263470
 C          6.2724286003        1.8766400192        0.3789788463
 C          5.4659025282        3.0296684876       -0.1077346683
 C          7.6684495082        2.0043523911        0.6509070726
 C          8.2499686198        0.8637154871        1.0785420103
 S          7.1038587867       -0.4109744047        1.1614929924
 S          3.1139759444        1.1635097505       -0.0805548291
 S         -0.6717512776       -1.1897879254       -0.2177752911
 S         -4.6556021897        0.4410347847       -1.3481325376
 Cl        -8.7717703540        1.8037109089        3.3695357173
 H         -7.9899643183        1.3211149626        1.1240895353
 H         -7.9961244279        1.8032872918       -0.4816597574
 H         -6.6162514747        1.1622692473        0.1718813040
 H         -9.1184365363       -0.3174124723       -0.4320958344
 H         -7.8330116295       -0.9931886273        0.5453005196
 H         -7.4164195487        0.0321335166       -2.3062300005
 H         -7.6620878815       -1.6536405662       -1.9048626809
 H         -5.7135432724       -2.9359764632       -0.7389781010
 H         -3.1469181806       -2.6666408378       -0.3597166796
 H         -2.1164109784        1.9029222818       -1.3066741912
 H         -0.0992201106        3.3057692908       -1.3301137402
 H          1.3942505214        2.4467270111       -1.7028128294
 H          1.0344171993        2.9149952205       -0.0372624303
 H          4.6726316057        3.2731757793        0.5990396227
 H          5.0067234779        2.8018737987       -1.0705466220
 H          6.0847168109        3.9187026679       -0.2346321968
 H          8.2034907923        2.9341770138        0.5253675695
 H          9.2867862831        0.7489727925        1.3353156098
          48
        -82.46066856
 N         -7.5468457331        0.0764861363        1.8916939895
 C         -8.1286629098       -0.9398943287        0.9750157162
 C         -7.5080979657       -0.8588580905       -0.4175253615
 C         -6.0262651008       -0.9870653413       -0.3866550269
 C         -5.3392330709       -2.1587316108       -0.3946580529
 C         -3.9312150783       -1.9945915055       -0.3384224163
 C         -3.5334680379       -0.6889119765       -0.2854252383
 C         -2.1685573458       -0.2342337126       -0.2212143507
 C         -1.7590622763        1.0680055614       -0.1863666876
 C         -0.3509716125        1.2415071235       -0.1253071869
 C          0.2638984264        2.5966241054       -0.0807965271
 C          0.3455768536        0.0468672437       -0.1137188259
 C          1.7799031162       -0.1138672199       -0.0609892838
 C          2.4755986225       -1.3076291124       -0.0338308973
 C          1.8661200554       -2.5760651650       -0.0572764400
 N          1.3282686753       -3.6049260482       -0.0790702101
 C          3.9054785474       -1.1459468344        0.0214689225
 C          4.7804193585       -2.2476271787        0.0619792099
 N          5.5308190416       -3.1328295109        0.0990536685
 C          4.3179767745        0.1718321618        0.0329101649
 C          5.6830250403        0.6501067064        0.0849624521
 C          6.0935154719        1.9671509864        0.0715534495
 C          5.1936274898        3.1507007184       -0.0106202024
 C          7.5120362282        2.1122597481        0.1483752078
 C          8.1804815404        0.9413260016        0.2142373663
 S          7.0910900177       -0.3844519260        0.1789194044
 S          2.9188650492        1.1930213543       -0.0224655418
 S         -0.7897289790       -1.2793162795       -0.1743607300
 S         -4.9264277858        0.3558993952       -0.3042798359
 Cl        -7.2934501722        2.7281149764       -0.2560533300
 H         -7.5742940034        1.0093190829        1.4413584747
 H         -6.5544693540       -0.1288233083        2.0824398115
 H         -8.0422217586        0.1323855103        2.7965448462
 H         -9.2159291920       -0.8056870641        0.9155579226
 H         -7.9728120303       -1.9399924139        1.3967734676
 H         -7.7646798703        0.1010040210       -0.8797064787
 H         -7.9272858028       -1.6284943099       -1.0765327109
 H         -5.8234844804       -3.1227614676       -0.4358079851
 H         -3.2326687587       -2.8174931816       -0.3372412972
 H         -2.4519003120        1.8945947261       -0.2051285376
 H         -0.4983871252        3.3767680160       -0.0864009780
 H          0.9118951652        2.7560323698       -0.9434697205
 H          0.8621664792        2.7206782964        0.8226904925
 H          4.5284129384        3.1917540248        0.8521186521
 H          4.5806515230        3.1089235959       -0.9120295389
 H          5.7643155587        4.0798607513       -0.0378857766
 H          7.9983006642        3.0766944652        0.1533901738
 H          9.2474659705        0.8335439585        0.2779599489
          48
        -82.46083554
 N         -7.5174815432        0.1569414572        1.9153520749
 C         -8.1137690251       -0.8935981911        1.0476746058
 C         -7.5118434132       -0.8704944402       -0.3552554396
 C         -6.0299927304       -1.0015533433       -0.3394786509
 C         -5.3452034624       -2.1745380912       -0.3246858339
 C         -3.9362917331       -2.0119950524       -0.2879594680
 C         -3.5360866167       -0.7061431942       -0.2709114543
 C         -2.1705723840       -0.2509095685       -0.2267313654
 C         -1.7627123486        1.0522335000       -0.2151840670
 C         -0.3547143087        1.2288164495       -0.1637983306
 C          0.2577476103        2.5856433881       -0.1459461559
 C          0.3437779374        0.0356071787       -0.1350728172
 C          1.7783752349       -0.1210545518       -0.0776201230
 C          2.4785936734       -1.3122609874       -0.0550898918
 C          1.8732853097       -2.5824664989       -0.0879267368
 N          1.3377628650       -3.6124688226       -0.1124638810
 C          3.9076396037       -1.1453929039        0.0074568094
 C          4.7870537003       -2.2437691133        0.0399076209
 N          5.5418042852       -3.1254566555        0.0716315036
 C          4.3146873867        0.1738893289        0.0336766561
 C          5.6771443266        0.6578124758        0.0991767927
 C          6.0806110116        1.9769399440        0.1210453963
 C          5.1739167019        3.1574771961        0.0797108054
 C          7.4987202531        2.1277683091        0.1940902488
 C          8.1734255821        0.9590286898        0.2256666890
 S          7.0906878545       -0.3713438314        0.1657253675
 S          2.9119649506        1.1898674593       -0.0234454414
 S         -0.7895249539       -1.2931175568       -0.1781692005
 S         -4.9270358187        0.3408512599       -0.3066828846
 Cl        -7.2824295161        2.7230221367       -0.3309086353
 H         -7.5463179825        1.0707323972        1.4275946198
 H         -6.5238932185       -0.0448716793        2.1035135769
 H         -8.0023210089        0.2522129477        2.8226150873
 H         -9.2014463483       -0.7589438145        0.9974782749
 H         -7.9547081405       -1.8763990280        1.5072001011
 H         -7.7725693831        0.0706247912       -0.8523374815
 H         -7.9417424264       -1.6649836099       -0.9767952331
 H         -5.8317414437       -3.1382388302       -0.3357426378
 H         -3.2392889762       -2.8360566368       -0.2722267113
 H         -2.4569631166        1.8773925524       -0.2426534820
 H          0.8536702133        2.7296346558        0.7561876046
 H         -0.5057546729        3.3641338817       -0.1697300846
 H          0.9075098919        2.7282209450       -1.0102971457
 H          4.5044507306        3.1616579901        0.9401587450
 H          4.5651951921        3.1465880298       -0.8254651066
 H          5.7390168979        4.0903836611        0.0908177662
 H          7.9798150740        3.0943690041        0.2229111574
 H          9.2412658881        0.8550005401        0.2807044114
