  18

 N         -2.8549574790       -0.5379604179       -0.1034495905
 C         -1.7710458537        0.4137860180        0.2800554228
 C         -0.4034132637       -0.0096326431       -0.2448975832
 C          0.7358854557        0.9323506333        0.1459403208
 C          2.0795761163        0.3838410802       -0.3158232699
 O          2.2963420981       -0.9242258575        0.1675428455
 H         -3.7718839525       -0.2360847846        0.2578778222
 H         -2.6722431807       -1.4816266772        0.2669979777
 H         -2.9374033489       -0.6164016996       -1.1272660475
 H         -1.7408812440        0.5028491640        1.3733834466
 H         -2.0208595703        1.4151827228       -0.0926314287
 H         -0.4429972426       -0.1051568154       -1.3362694750
 H         -0.1673156108       -1.0177690945        0.1169257089
 H          0.7518445487        1.0521754842        1.2350020617
 H          0.5622720436        1.9336006711       -0.2658897269
 H          2.9239394305        1.0272964535       -0.0278936844
 H          2.1071741689        0.3009280977       -1.4111226096
 H          2.6815718773       -0.9371783797        1.0678063867
          18
        -21.24418811
 N         -1.4181199181        1.1744705324       -0.2339788144
 C         -1.6372541697       -0.1760517342        0.3522078438
 C         -0.7194448428       -1.2501056827       -0.2376504745
 C          0.7452166910       -1.2245200586        0.2383615049
 C          1.6102071866       -0.1098069694       -0.3560860371
 O          1.3739494179        1.1605909075        0.2194292857
 H         -1.9718650799        1.9041755960        0.2376173169
 H         -1.6468970144        1.1979284672       -1.2376760952
 H         -0.4159972744        1.4011015196       -0.1276274827
 H         -2.6911941788       -0.4478014155        0.2011647252
 H         -1.4987475588       -0.1293527467        1.4398672513
 H         -0.7451002253       -1.1808491195       -1.3311421558
 H         -1.1458114194       -2.2366420558       -0.0074413570
 H          1.2097808302       -2.1915375802        0.0008491770
 H          0.7747810569       -1.1522579345        1.3310292118
 H          1.4156779861       -0.0060540102       -1.4315238134
 H          2.6840521516       -0.3329747838       -0.2662804456
 H          1.9439406150        1.3258307836        0.9972703643
