  36

 N         -6.2083603481        0.9933049951       -1.1995953631
 C         -4.7318734643        0.7887248834       -1.2265390782
 C         -4.1233316140        0.7991610602        0.1713042280
 C         -2.6425539785        0.5586599428        0.1651455708
 C         -1.7518854498        1.6183312881        0.0780009673
 C         -0.3921336059        1.3981487139        0.0426565127
 C          0.1248590544        0.1033081590        0.0883359239
 C          1.5559638650       -0.1686846329        0.0516661672
 C          2.5201344107        0.7449763682        0.2312401753
 C          3.9509876147        0.4755033178        0.1898375359
 C          4.4685172691       -0.7326054027       -0.2763178065
 C          5.8293768885       -0.9657170371       -0.3147065253
 F          6.3103077593       -2.1542925287       -0.7738361143
 C          6.6974340116        0.0215855314        0.1179957498
 C          6.2085250859        1.2258339973        0.5802218989
 C          4.8504991296        1.4535950276        0.6156189627
 C         -0.7778619886       -0.9577482318        0.1600878135
 C         -2.1361827920       -0.7320983385        0.1972056280
 Cl        -7.4250919636       -1.5350148248        0.9236960522
 H         -6.6226153524        0.9538275829       -2.1402019705
 H         -6.4453800540        1.9029925211       -0.7836236825
 H         -6.6570993786        0.2635104931       -0.6211889756
 H         -4.2582510258        1.5611388378       -1.8433514121
 H         -4.4990599114       -0.1618954358       -1.7202438631
 H         -4.6122952299        0.0411059307        0.7923900843
 H         -4.3369522168        1.7541496241        0.6622303181
 H         -2.1368245759        2.6231731946        0.0344847703
 H          0.2770318661        2.2364159394       -0.0381151416
 H          1.8401652425       -1.1931241302       -0.1092902967
 H          2.2345702117        1.7589657107        0.4465982700
 H          3.8139435654       -1.5056816711       -0.6316760768
 H          7.7556193141       -0.1682791821        0.0834863616
 H          6.8913782346        1.9900707104        0.9136614140
 H          4.4707936664        2.3942151194        0.9767210327
 H         -0.3993871386       -1.9655051216        0.1913023597
 H         -2.8204591283       -1.5619889949        0.2523208260
          36
        -55.14256831
 N         -4.7834728858       -0.1576741596        1.7433070112
 C         -5.2653621403        1.0368558531        0.9928656429
 C         -4.6432939404        1.1313223076       -0.3985449188
 C         -3.1442303095        1.1380959116       -0.3677227209
 C         -2.4417245052        2.3174002320       -0.1722290080
 C         -1.0653302872        2.3160090229       -0.1146824183
 C         -0.3411539484        1.1305667771       -0.2418947630
 C          1.1141102087        1.1665693830       -0.1805927720
 C          1.9149449136        0.0930198221       -0.1258576375
 C          3.3702653984        0.1313190900       -0.0717975668
 C          4.0769881277       -1.0365644059        0.2133654737
 C          5.4567385020       -1.0499198199        0.2718358335
 F          6.1232314284       -2.2034635295        0.5552444221
 C          6.1529591956        0.1232010722        0.0390924180
 C          5.4758543486        1.2898901250       -0.2499432092
 C          4.0991683153        1.2980654050       -0.3066967542
 C         -1.0555458788       -0.0526597549       -0.4316140458
 C         -2.4315505302       -0.0453037487       -0.4890534832
 Cl        -4.6720647300       -2.8273408082       -0.5568891466
 H         -5.2934118348       -0.2993426660        2.6258845508
 H         -3.7830849700       -0.0676974919        1.9656192273
 H         -4.8870734788       -1.0094159540        1.1667939387
 H         -5.0323611718        1.9416021499        1.5662213023
 H         -6.3591194963        1.0070533008        0.9167951682
 H         -4.9982353225        2.0278147128       -0.9198090549
 H         -4.9807595250        0.2867225489       -1.0085524334
 H         -2.9862756914        3.2401080998       -0.0638173281
 H         -0.5335258308        3.2401962679        0.0350215781
 H          1.5620492956        2.1438106272       -0.1605558328
 H          1.4670613517       -0.8840228714       -0.0991321379
 H          3.5456836439       -1.9523271926        0.3977170261
 H          7.2274743579        0.1053716446        0.0868173955
 H          6.0269525949        2.1976067688       -0.4343788680
 H          3.5842384886        2.2109159312       -0.5486035508
 H         -0.5284842822       -0.9838035374       -0.5424707539
 H         -2.9717673577       -0.9680450250       -0.6217441978
          36
        -55.14273085
 N         -4.8619315714        0.6850163546        1.6117337768
 C         -5.0488132556        1.6975377161        0.5336837719
 C         -4.4285774961        1.2503022794       -0.7881152944
 C         -2.9688397394        0.9298611921       -0.6673004810
 C         -2.0125930641        1.9307669699       -0.7488419611
 C         -0.6729943147        1.6416514471       -0.6050057174
 C         -0.2437123955        0.3359636690       -0.3660486142
 C          1.1637634193       -0.0093980632       -0.2127918044
 C          2.1625460694        0.8701267692       -0.0533611809
 C          3.5703318015        0.5261238250        0.0944129010
 C          4.0505652898       -0.7641841211       -0.1279827186
 C          5.3909943286       -1.0673586153        0.0119952558
 F          5.8365283974       -2.3336464796       -0.2172376122
 C          6.2756608011       -0.0692418476        0.3817439384
 C          5.8240550994        1.2152138948        0.6033336621
 C          4.4866379929        1.5128674850        0.4604373608
 C         -1.2123332882       -0.6642128160       -0.2809497674
 C         -2.5496468328       -0.3694217331       -0.4242250220
 Cl        -5.4096043009       -2.4629367686        0.1228313556
 H         -5.3891893118        0.9178266748        2.4643404948
 H         -3.8683388824        0.6016616923        1.8651752255
 H         -5.1672655421       -0.2466447914        1.2841261247
 H         -4.6046627575        2.6484933924        0.8499369301
 H         -6.1185784580        1.8993202863        0.3998221930
 H         -4.5679701097        2.0168831287       -1.5590685386
 H         -4.9559504671        0.3650959997       -1.1591567557
 H         -2.3299540486        2.9442063269       -0.9274857094
 H          0.0499765583        2.4333430550       -0.6911142363
 H          1.3959708393       -1.0592167574       -0.2090311011
 H          1.9240468412        1.9174892935       -0.0073795385
 H          3.3848934780       -1.5503981558       -0.4299879703
 H          7.3175126625       -0.3148866893        0.4890218356
 H          6.5197781217        1.9873477233        0.8886372952
 H          4.1360200618        2.5159170017        0.6348022925
 H         -0.9027306695       -1.6784877442       -0.0933473033
 H         -3.2880620933       -1.1490976083       -0.3370204414
