  36

 N         -4.6796583403        0.7208407651        1.4115065199
 C         -4.8852802970       -0.7498156535        1.2953022245
 C         -4.2429367828       -1.3184523806        0.0327044358
 C         -2.7809187074       -0.9977828153       -0.0684634096
 C         -1.8303229913       -1.8090242269        0.5339806295
 C         -0.4894967280       -1.4912391206        0.4732993005
 C         -0.0553906475       -0.3430942151       -0.1896939187
 C          1.3539458358        0.0253260123       -0.2727308679
 C          2.3818001141       -0.7922012061       -0.0056379264
 C          3.7891824720       -0.4187354780       -0.0941199540
 C          4.1993557424        0.9125425471       -0.1604247007
 C          5.5361597766        1.2495982467       -0.2440183892
 F          5.9093211258        2.5523235429       -0.3031288542
 C          6.4889630703        0.2457171787       -0.2629251977
 C          6.1070047772       -1.0784885879       -0.1930336879
 C          4.7712717842       -1.4102480637       -0.1070074958
 C         -1.0181917578        0.4760075903       -0.7786000999
 C         -2.3563158163        0.1523228152       -0.7181429008
 Cl        -5.1699031871        2.1283380351       -1.7416216878
 H         -5.2073654939        1.1340655636        2.1984286327
 H         -4.9710410753        1.1994304388        0.5387845393
 H         -3.6818105079        0.9413234645        1.5513652711
 H         -5.9588415040       -0.9747840468        1.3100489948
 H         -4.4662689987       -1.2432509380        2.1807168386
 H         -4.7545180353       -0.9204379260       -0.8510853961
 H         -4.3803502604       -2.4054430131       -0.0149783566
 H         -2.1529114985       -2.6944266844        1.0571884415
 H          0.2286815367       -2.1289477421        0.9598275036
 H          1.5651504892        1.0265387644       -0.6061246276
 H          2.1742677425       -1.8126303996        0.2658782029
 H          3.4790748314        1.7094189981       -0.1284840123
 H          7.5270718959        0.5210494387       -0.3302076139
 H          6.8553693160       -1.8553416491       -0.2066553047
 H          4.4737202868       -2.4446141675       -0.0544290022
 H         -0.7032127982        1.3709539454       -1.2899469930
 H         -3.0909609345        0.8003515321       -1.1688204993
          36
        -55.05787560
 N         -4.8176643726        0.5289454973        1.6445507337
 C         -5.1559726291        1.5542053218        0.6185358803
 C         -4.5049510974        1.2493367482       -0.7279649868
 C         -3.0163725505        1.0912663164       -0.6292656444
 C         -2.1793232254        2.1964308139       -0.6711772902
 C         -0.8142054645        2.0512119966       -0.5420067283
 C         -0.2386303651        0.7933798130       -0.3620465640
 C          1.2093690559        0.6761278972       -0.2273020749
 C          1.8986212199       -0.4726131631       -0.2671629545
 C          3.3456917551       -0.5897653411       -0.1283577013
 C          4.1491425716        0.4888405792        0.2407153063
 C          5.5178161468        0.3554525911        0.3698694148
 F          6.2762686430        1.4197149528        0.7331283534
 C          6.1056392481       -0.8739062278        0.1278733532
 C          5.3310769566       -1.9563958416       -0.2355303682
 C          3.9647602848       -1.8186522411       -0.3616170410
 C         -1.0878794691       -0.3115803092       -0.3051029090
 C         -2.4520939385       -0.1613278385       -0.4345719300
 Cl        -5.0290735047       -2.5936674602        0.1056495167
 H         -3.8118572112        0.5589662379        1.8754344538
 H         -5.0138103820       -0.4237846471        1.2853228520
 H         -5.3458825773        0.6575920165        2.5224807348
 H         -4.8329711032        2.5397290015        0.9737889090
 H         -6.2456695373        1.6203624457        0.5074337878
 H         -4.7386250754        2.0341327488       -1.4573897166
 H         -4.9318515521        0.3288169373       -1.1421625571
 H         -2.6093314093        3.1756461969       -0.8044883245
 H         -0.1754675817        2.9181131838       -0.5820782204
 H          1.7493125231        1.5989889859       -0.1079640572
 H          1.3624179186       -1.3906938981       -0.4326272964
 H          3.7164363805        1.4503968645        0.4466552764
 H          7.1728876991       -0.9652579261        0.2311766548
 H          5.7959578596       -2.9119664840       -0.4210401245
 H          3.3614046218       -2.6647523736       -0.6466981838
 H         -0.6774261976       -1.2932411732       -0.1409159660
 H         -3.0995656744       -1.0210493992       -0.3690114610
