  36

 N          1.0078607563        1.5682539955        1.2847184682
 C          2.4538919380        1.5557873481        1.5821204767
 C          2.9980138448        0.1351560118        1.4287087978
 C          4.4974948692        0.1286394397        1.5100018690
 C          5.1526102928       -0.1367465663        2.7069115939
 C          6.5309078038       -0.1336829789        2.7790867574
 C          7.3057544153        0.1425537892        1.6499682968
 C          8.7562812066        0.1380963885        1.6572078306
 C          9.5418873900       -0.3497105768        2.6281937320
 C         10.9923399194       -0.3823135218        2.6126527832
 C         11.7561866894        0.3402489437        1.6916774277
 C         13.1284848216        0.2415554678        1.7352948659
 F         13.8602054659        0.9583959237        0.8254972244
 C         13.8009986191       -0.5433879732        2.6524376542
 C         13.0431914150       -1.2523746146        3.5710627189
 C         11.6647294081       -1.1689331776        3.5545185011
 C          6.6394390077        0.4318001920        0.4547260890
 C          5.2618716374        0.4207764033        0.3861560747
 Cl         0.6263325908        0.5173343380       -1.5628075742
 H          0.6169501119        2.5103884639        1.3513281998
 H          0.5005521562        0.9367555557        1.9097202304
 H          0.8517112876        1.2228560592        0.3025303971
 H          2.6282826384        1.9210424297        2.5950143090
 H          2.9612786045        2.2100694828        0.8732223988
 H          2.6824066062       -0.2432044639        0.4543513527
 H          2.5870831225       -0.5098476627        2.2053351896
 H          4.5764756087       -0.3575614981        3.5930109775
 H          7.0111984977       -0.3379447874        3.7228976725
 H          9.2082043313        0.5404749518        0.7601258290
 H          9.0934163546       -0.8027403443        3.5012485722
 H         11.3000416872        0.9818933099        0.9558471064
 H         14.8773621971       -0.5876510429        2.6416030512
 H         13.5387706724       -1.8710280363        4.3027089938
 H         11.0898048902       -1.7283421056        4.2768675050
 H          7.2168376296        0.6529382198       -0.4319853246
 H          4.7677215126        0.6297626366       -0.5521000477
