13
 xtb: 6.5.1 (fef0646)
N           -2.33433888668265       -0.03816912628069        0.11197372626136
C           -0.93972301643396       -0.37661322801887       -0.31243698703766
C            0.12264835856802        0.53090078264090        0.31227543164633
C            1.45603305456278        0.09994022651110        0.07119741082043
C            2.59149255778670       -0.21791510522722       -0.20367681916306
H           -3.02274678766121       -0.53202991145966       -0.48596250927784
H           -2.49153061997244        0.99717288028687       -0.06140160744186
H           -2.50769622334520       -0.23018568723443        1.07526876644897
H           -0.83375530355377       -0.31530662406398       -1.39393929070755
H           -0.76158723609130       -1.43629143989937       -0.05150695665219
H           -0.00836592196257        0.47033534351271        1.45087445873149
H           -0.02007174595399        1.53639862892982        0.06377597942839
H            3.59258888062422       -0.48265797384809       -0.46251417511574
