 xtb: 6.5.1 (fef0646)
          01242316583D

 13 12  0     0  0            999 V2000
   -2.3360   -0.0039    0.0701 N   0  0  0  0  0  0  0  0  0  0  0  0
   -0.9391   -0.3860   -0.3003 C   0  0  0  0  0  0  0  0  0  0  0  0
    0.1247    0.4741    0.3817 C   0  0  0  0  0  0  0  0  0  0  0  0
    1.4556    0.1146    0.0530 C   0  0  0  0  0  0  0  0  0  0  0  0
    2.5909   -0.1969   -0.2297 C   0  0  0  0  0  0  0  0  0  0  0  0
   -3.0196   -0.6011   -0.4039 H   0  0  0  0  0  0  0  0  0  0  0  0
   -2.5254    0.9675   -0.1918 H   0  0  0  0  0  0  0  0  0  0  0  0
   -2.4788   -0.0958    1.0798 H   0  0  0  0  0  0  0  0  0  0  0  0
   -0.8212   -0.3185   -1.3891 H   0  0  0  0  0  0  0  0  0  0  0  0
   -0.7734   -1.4406   -0.0467 H   0  0  0  0  0  0  0  0  0  0  0  0
    0.0036    0.4161    1.4700 H   0  0  0  0  0  0  0  0  0  0  0  0
   -0.0298    1.5279    0.1211 H   0  0  0  0  0  0  0  0  0  0  0  0
    3.5922   -0.4705   -0.4775 H   0  0  0  0  0  0  0  0  0  0  0  0
  1  2  1  0  0  0  0
  2  3  1  0  0  0  0
  3  4  1  0  0  0  0
  4  5  3  0  0  0  0
  1  6  1  0  0  0  0
  1  7  1  0  0  0  0
  1  8  1  0  0  0  0
  2  9  1  0  0  0  0
  2 10  1  0  0  0  0
  3 11  1  0  0  0  0
  3 12  1  0  0  0  0
  5 13  1  0  0  0  0
M  CHG  1   1   1
M  END
