18
0.545
N            0.05837  -1.64136  -0.08018
C            1.07476  -1.21728   0.92607
C            1.79365   0.09413   0.56742
C            2.58117  -0.03504  -0.73649
C            0.81935   1.27072   0.50550
Cl          -2.55537   0.71090  -0.43991
H           -0.39792  -2.52566   0.18630
H            0.48457  -1.78073  -1.00648
H           -0.68580  -0.93093  -0.18548
H            1.81545  -2.01635   1.04825
H            0.59093  -1.11192   1.90404
H            2.51803   0.30313   1.37565
H            1.91151  -0.18439  -1.58341
H            3.27038  -0.88035  -0.70685
H            3.16363   0.86457  -0.94217
H            0.24048   1.36126   1.42589
H            0.11499   1.14936  -0.31711
H            1.34209   2.21493   0.34442
