  19

 N         -1.7135204926        1.7008381634       -0.2352142874
 C         -0.3342313183        1.6279734643        0.3274811730
 C          0.4932740563        0.5232530521       -0.3167822868
 C          1.9048896793        0.4196337321        0.2583677331
 C          2.7190926145       -0.7067078347       -0.3706514499
 O          4.0166635833       -0.8461160693        0.1806332947
 Cl        -3.1078982182       -1.5047751362        0.1261864221
 H         -2.2837756736        2.4211811806        0.2275362875
 H         -2.1944206597        0.7926240425       -0.1232306642
 H         -1.6888545227        1.9120040918       -1.2410231812
 H         -0.3856587050        1.4653744751        1.4104788090
 H          0.1707295582        2.5929873441        0.2018134220
 H          0.5458445804        0.6867986235       -1.3990397000
 H         -0.0241393370       -0.4357957633       -0.1997160050
 H          1.8558193654        0.2668010521        1.3419212045
 H          2.4294594141        1.3719514655        0.1263452285
 H          2.8045981131       -0.5682557236       -1.4562416976
 H          2.2073505440       -1.6662833091       -0.2306817768
 H          4.5235986621       -0.0163004132        0.0847622326
          19
        -26.25295063
 N         -1.1547893193        2.0315547269        0.2956388189
 C          0.1524359229        2.1166629762       -0.4172189351
 C          1.2016778319        1.1675116112        0.1543018806
 C          0.8562040126       -0.3049453031       -0.0384582409
 C          1.9762844890       -1.2213810369        0.4424094029
 O          3.1989331319       -1.0110865050       -0.2380516777
 Cl        -2.6088519570       -1.1761850561       -0.0727863357
 H         -1.0353234351        2.2102307231        1.3011271115
 H         -1.5741032768        1.0917547079        0.1962796653
 H         -1.8348604931        2.7131287437       -0.0673889898
 H          0.5179643662        3.1502477424       -0.3745428909
 H          0.0032597214        1.9032009844       -1.4821725570
 H          1.3389680531        1.3727993616        1.2218824001
 H          2.1793597559        1.3661646670       -0.3018021446
 H          0.6556577485       -0.4976853725       -1.0977287549
 H         -0.0768291928       -0.5419784453        0.4851824711
 H          1.6983002830       -2.2805668474        0.3545381044
 H          2.1737619186       -1.0467538832        1.5067323465
 H          3.0975349339       -1.1984813346       -1.1921582945
          19
        -26.25653589
 N          0.3948534390       -2.0205490419        0.2496809801
 C          1.5949192497       -1.1893936774        0.5570981088
 C          2.0666117662       -0.3599573894       -0.6328310871
 C          1.0966836524        0.7396612007       -1.0627231949
 C          0.9211470567        1.8315432387       -0.0090099377
 O          0.2529900389        1.3940976775        1.1565737757
 Cl        -2.5517170658       -0.1035049853       -0.1872438104
 H          0.5591541368       -2.6114676172       -0.5758019829
 H         -0.4300605513       -1.4301496800        0.0501914255
 H          0.1454376893       -2.6373531679        1.0348874386
 H          2.4049706798       -1.8466221493        0.8977525306
 H          1.3788963298       -0.5318837077        1.4067757283
 H          2.2577243125       -1.0350200255       -1.4759405701
 H          3.0381906986        0.0957783890       -0.4044200339
 H          0.1206424990        0.3032702732       -1.2975941886
 H          1.4449096921        1.1908879197       -2.0009456696
 H          0.3711633009        2.6921433518       -0.4145171573
 H          1.8982423563        2.2174660761        0.3044078370
 H         -0.6156736028        1.0059667771        0.9064748260
          19
        -26.25897210
 N         -0.0717869973       -0.6694183048       -1.3337557558
 C          0.5652806144       -1.6934310338       -0.4633885554
 C          0.8523922401       -1.1706162730        0.9433797483
 C          2.0366138451       -0.1994669635        1.0568725376
 C          1.7799471999        1.2122654993        0.5110014824
 O          1.9672567861        1.3521896667       -0.8875871802
 Cl        -3.0038920419        0.4121265829        0.2249208741
 H         -0.2262837960       -0.9981708322       -2.2962030794
 H          0.5533793318        0.1535243957       -1.3572253393
 H         -0.9728227836       -0.3594040834       -0.9404056789
 H          1.4962001953       -2.0474743766       -0.9214577281
 H         -0.0894482877       -2.5730728846       -0.4164953288
 H          1.0286486835       -2.0265081010        1.6089078200
 H         -0.0491218174       -0.6880625369        1.3372536583
 H          2.9122042336       -0.6266191982        0.5574973621
 H          2.3238787233       -0.1195198088        2.1140685673
 H          2.4213145571        1.9526204604        1.0096857127
 H          0.7519490671        1.5195334559        0.7363569975
 H          2.9061311661        1.2158157402       -1.1230730955
