  24

 N         -2.3838077488       -1.5724708422       -0.3423412864
 C         -1.0352007421       -1.6804383427        0.2871127575
 C         -0.0355919097       -0.7030785426       -0.3186525350
 C          1.3382211372       -0.7610976436        0.3499317926
 C          2.3491876742        0.1991266859       -0.2770681803
 C          3.7203185518        0.1508420050        0.3988195777
 C          4.7267069064        1.0955911419       -0.2416966327
 Cl        -3.4585838588        1.7361519170        0.1343968833
 H         -3.0594811624       -2.2292531346        0.0719175819
 H         -2.3344149111       -1.7623238787       -1.3521401744
 H         -2.7598047739       -0.6154919696       -0.2271529407
 H         -0.6586853069       -2.7056970064        0.1894340882
 H         -1.1161164730       -1.5037198727        1.3661391512
 H         -0.4346473506        0.3160612606       -0.2551908767
 H          0.0666957409       -0.9002117723       -1.3920529804
 H          1.7269198416       -1.7854851281        0.3052711916
 H          1.2368602449       -0.5428131407        1.4197970296
 H          1.9568214411        1.2226372854       -0.2417119339
 H          2.4571709067       -0.0259162919       -1.3449793096
 H          4.1006984803       -0.8786261227        0.3748990910
 H          3.6075363439        0.3851138967        1.4654274982
 H          4.8826762577        0.8523422068       -1.2943589578
 H          5.7003191540        1.0551690951        0.2516494154
 H          4.3805312349        2.1299747384       -0.1993613619
          24
        -28.51705802
 N         -2.2968842806       -1.7778683511       -0.3187088328
 C         -0.9414547647       -1.8214747920        0.3045729619
 C          0.0054178748       -0.7928426841       -0.3009120321
 C          1.3957173496       -0.8118159483        0.3346044292
 C          2.3413614691        0.2286869268       -0.2653968236
 C          3.7342705930        0.2066994951        0.3657407942
 C          4.6690287082        1.2473252286       -0.2330780588
 Cl        -3.4636719832        1.5072560739        0.0781118355
 H         -2.9447597107       -2.4527594721        0.1108452395
 H         -2.2458804373       -1.9828298057       -1.3255289260
 H         -2.7080341685       -0.8341925366       -0.2179453983
 H         -0.5149752365       -2.8262666396        0.1996635712
 H         -1.0253848315       -1.6536142949        1.3849442598
 H         -0.4311233068        0.2082303288       -0.2041228840
 H          0.0898435362       -0.9616627890       -1.3807078117
 H          1.8342476682       -1.8116782624        0.2316459659
 H          1.3086725194       -0.6499636715        1.4157343692
 H          1.9041732110        1.2288769297       -0.1582259748
 H          2.4247637521        0.0704407009       -1.3474765718
 H          4.1658889913       -0.7968397741        0.2564699488
 H          3.6438698538        0.3586660174        1.4492830381
 H          4.7991043387        1.0910553697       -1.3056102894
 H          5.6604618533        1.2214537535        0.2246077436
 H          4.2732716231        2.2561679533       -0.1013865684
