  24

 N         -2.3294128177       -1.3206093310        0.3518447888
 C         -0.9270377735       -1.6525432542       -0.0181068738
 C          0.0252936717       -0.4928994551        0.2443747368
 C          1.4764383505       -0.8192425049       -0.1090190004
 C          2.4298462403        0.3498057926        0.1394365677
 C          3.8832925031        0.0190846850       -0.2034568022
 C          4.8262860721        1.1864971218        0.0417419482
 Cl        -3.2652774998        1.5583854551       -1.3628604614
 H         -2.9834665723       -2.0929183777        0.1431447075
 H         -2.6550205069       -0.4820157477       -0.1643348871
 H         -2.4067751698       -1.1074704374        1.3599963715
 H         -0.8797217468       -1.9383223725       -1.0761713570
 H         -0.5967497901       -2.5385713644        0.5376645595
 H         -0.0415733415       -0.1941985805        1.2977872545
 H         -0.3045110173        0.3875879689       -0.3207095705
 H          1.5392311100       -1.1290026344       -1.1598789484
 H          1.8077012802       -1.6936903015        0.4650223053
 H          2.3610697404        0.6652741502        1.1881473768
 H          2.1030990174        1.2217562439       -0.4408762077
 H          3.9444627663       -0.3030610443       -1.2518443883
 H          4.2035129391       -0.8549413924        0.3797378219
 H          4.5460433619        2.0543409687       -0.5598198843
 H          5.8620084051        0.9375360293       -0.2037292608
 H          4.8036363538        1.5002104841        1.0879752038
          24
        -28.43317593
 N         -1.8691312815       -1.5307516795        0.8348888173
 C         -1.1329641709       -2.0910703091       -0.3300746949
 C         -0.0713922357       -1.1349154376       -0.8653346319
 C          1.0475541730       -0.8515087364        0.1360694993
 C          2.1289327301        0.0723339500       -0.4254064802
 C          3.2502090487        0.3582751632        0.5745492808
 C          4.3214758469        1.2778418085        0.0097780021
 Cl        -3.0014878796        1.6359723773       -0.0430725013
 H         -2.6486288895       -2.1394044634        1.1348202578
 H         -2.2651171862       -0.6007254070        0.6030624142
 H         -1.2469149915       -1.4024728079        1.6492796338
 H         -1.8498278115       -2.3395528868       -1.1235707287
 H         -0.6675208921       -3.0428231125       -0.0468511341
 H         -0.5455209794       -0.1896093844       -1.1569972801
 H          0.3652062875       -1.5345067674       -1.7900912881
 H          1.5011281167       -1.7969155183        0.4591950034
 H          0.6295538049       -0.4089118110        1.0481320604
 H          1.6744519603        1.0168838665       -0.7496353195
 H          2.5520229353       -0.3667674749       -1.3373754751
 H          3.6983161444       -0.5909259877        0.8979440726
 H          2.8204909709        0.7933157037        1.4868949358
 H          3.9005192457        2.2428731373       -0.2815061092
 H          4.7828600332        0.8466040427       -0.8815457247
 H          5.1195430573        1.4716977472        0.7311111343
          24
        -28.43329447
 N         -1.8662548100       -1.5328314089        0.8368651128
 C         -1.1342116625       -2.0813864743       -0.3362356179
 C         -0.0753455072       -1.1188233291       -0.8653906586
 C          1.0570437847       -0.8602320342        0.1276181641
 C          2.1264358281        0.0844002631       -0.4220698696
 C          3.2649359734        0.3396044009        0.5667634645
 C          4.3207118995        1.2855791824        0.0165686681
 Cl        -3.0089791317        1.6294231054       -0.0393683664
 H         -2.6428268074       -2.1459200696        1.1353969206
 H         -2.2658707860       -0.6021246482        0.6140074189
 H         -1.2415082427       -1.4085994362        1.6499912297
 H         -1.8542020478       -2.3216005258       -1.1294983974
 H         -0.6673926668       -3.0358932030       -0.0648514376
 H         -0.5495238583       -0.1659981676       -1.1314476892
 H          0.3480759452       -1.5009161624       -1.8036105010
 H          1.5187862594       -1.8128421003        0.4163342748
 H          0.6509298934       -0.4463409034        1.0583816949
 H          1.6643212656        1.0381309214       -0.7062339887
 H          2.5338067894       -0.3229384106       -1.3556894773
 H          3.7238491115       -0.6183387275        0.8462291486
 H          2.8502048210        0.7382658920        1.5023792217
 H          3.8890612583        2.2577105034       -0.2324585277
 H          4.7687571030        0.8893467182       -0.8975313132
 H          5.1298761800        1.4593755839        0.7306070939
          24
        -28.43359042
 N          0.5276333952       -1.7311564058        1.0054261545
 C         -0.2504636176       -2.2231903779       -0.1645920146
 C         -0.7480979527       -1.0997174973       -1.0792981863
 C         -2.0942486333       -0.4889696647       -0.6727991356
 C         -2.1027999408        0.2601457401        0.6627254751
 C         -1.0935451244        1.4098679114        0.7499378315
 C         -1.3347716124        2.5022654911       -0.2799958584
 Cl         2.8025923539        0.6184110864       -0.1615579451
 H         -0.0598397649       -1.1986230324        1.6635449084
 H          1.2881053269       -1.0969899708        0.6976617081
 H          0.9598298474       -2.5040083313        1.5401131928
 H         -1.0958970543       -2.8342495261        0.1739218148
 H          0.3897465058       -2.9094744422       -0.7352367169
 H         -0.8302417025       -1.4810033124       -2.1074050452
 H          0.0160741513       -0.3160704109       -1.1364002059
 H         -2.8504591159       -1.2853407270       -0.6510442915
 H         -2.4344387510        0.1948130614       -1.4618699498
 H         -1.9386603256       -0.4515896744        1.4809526337
 H         -3.1082670158        0.6617934536        0.8474783712
 H         -0.0744866364        1.0172566082        0.6426813107
 H         -1.1188248287        1.8448032449        1.7593028963
 H         -0.6337501563        3.3335300586       -0.1677923073
 H         -2.3440968326        2.9107908169       -0.1935938504
 H         -1.2255374016        2.1245581679       -1.2987395021
          24
        -28.43484024
 N          0.4168843093       -1.2216450475        1.4038711698
 C         -0.2604143154       -2.1723229077        0.4791954885
 C         -0.6431344349       -1.5461286914       -0.8656690273
 C         -2.0148986189       -0.8615153188       -0.8891315505
 C         -2.1594364575        0.3537574434        0.0297846094
 C         -1.1843065856        1.4888027970       -0.2903593211
 C         -1.3741630072        2.6972027044        0.6131121868
 Cl         2.8614538267        0.5281213702       -0.3234073747
 H         -0.2152069950       -0.4722457379        1.7195765636
 H          1.2166984230       -0.7590644631        0.9337774132
 H          0.7797880592       -1.6911500871        2.2508069285
 H         -1.1481159078       -2.6001331703        0.9607592366
 H          0.4129946167       -3.0240926409        0.3134212006
 H         -0.6239880050       -2.3221422868       -1.6445031769
 H          0.1353022015       -0.8353738069       -1.1659432089
 H         -2.7844897855       -1.6041230689       -0.6390915892
 H         -2.2456869300       -0.5488509033       -1.9165564407
 H         -2.0465595317        0.0482933646        1.0759292774
 H         -3.1847033554        0.7430968707       -0.0296894093
 H         -1.3018364246        1.7806486650       -1.3428253676
 H         -0.1520186145        1.1250051617       -0.2126153557
 H         -0.6765709495        3.5045104601        0.3758324738
 H         -1.2245083915        2.4334907005        1.6627692945
 H         -2.3851454892        3.1016017919        0.5248314325
