28
 xtb: 6.5.1 (fef0646)
N           -3.21557556252770        0.73577425410387       -0.02286434251367
C           -2.09362740419695        1.61630377155943       -0.48799407233245
C           -2.45447644428411        2.37213606247898       -1.76180886618644
C           -0.82872929908545        0.80595575798678       -0.64361186847761
C           -0.76355389143602       -0.24056305268366       -1.58276662112193
C            0.35618962390432       -1.00649489374911       -1.70870500424621
C            0.25670756095439        1.05375249921315        0.15268426139741
C            1.43484469228771        0.27951938356739        0.05285834210995
C            1.48580018865850       -0.77099626794072       -0.89338597835577
C            2.66168068058946       -1.55050805080483       -0.98775588996924
C            3.72939635348996       -1.29625111925517       -0.17994200046851
C            3.67930056188912       -0.25483468541235        0.75717421309638
C            2.56191115364514        0.51652907616176        0.87317924018500
Cl          -1.97450706281200       -1.00107883143121        2.36032238494803
H           -2.97084082690233        0.20587242918509        0.73880213689398
H           -3.48887924817014        0.10510313666592       -0.83949899742668
H           -4.07712132846242        1.31632499858721        0.13836512841473
H           -1.92172288673912        2.36308149649612        0.28895047192210
H           -2.62759341813402        1.71801536906833       -2.61471750269612
H           -1.59992747109205        3.04568187035600       -2.09226062932652
H           -3.31204240864846        3.02606908602445       -1.66162996359751
H           -1.61802235448157       -0.42211403614639       -2.23033099181612
H            0.39090037223745       -1.79762166175501       -2.44189514384840
H            0.20002247871362        1.84807263682594        0.87274127993243
H            2.69525690516840       -2.34654432484375       -1.70815498253801
H            4.60844947951163       -1.89719891233782       -0.25058832972475
H            4.51209666777009       -0.06966835168799        1.40272103181392
H            2.50188873739381        1.31088576506475        1.60232997413645
