28
 xtb: 6.5.1 (fef0646)
N           -3.41139405216888        0.22948949522801        0.33311059187119
C           -3.17095039417598        1.70366100628219        0.27108869071807
C           -1.93678862841952        2.12952981574892        1.06399765433943
C           -0.67770599232489        1.48062674678636        0.57059354599643
C           -0.11000031084385        0.44134507105430        1.25624559854520
C            1.05477576115111       -0.20350185242771        0.78187306763609
C            1.64967944870624       -1.28440055595318        1.47239275492625
C            2.76450929524933       -1.89366999958919        0.97947053355964
C            3.34074272620668       -1.45655923346928       -0.22137399832592
C            2.79389879930510       -0.41650803763193       -0.91160911476812
C            1.63674628245121        0.23789154949795       -0.43008253618681
C            1.03477273377899        1.31313335726220       -1.12176787893257
C           -0.08758128755124        1.91117424171753       -0.63352553534144
Cl          -1.25770860778026       -1.57789918873659       -1.26830706664310
H           -4.32028448931686        0.02107250417265       -0.09813168555470
H           -3.51015297024149       -0.03051107133489        1.35490488678251
H           -2.68005490650313       -0.26176858860314       -0.06857044745720
H           -4.05310031125951        2.29421606595079        0.66867125654510
H           -3.06848041427992        2.03802990547954       -0.75145035763583
H           -2.06634577453800        1.91001058206511        2.13879346117495
H           -1.79628339765821        3.24099414544753        1.04512106205700
H           -0.56655931589783        0.10803163610546        2.17585646527540
H            1.19342787251859       -1.61894453422667        2.39372135210352
H            3.19382903566998       -2.71796793604712        1.51212777164652
H            4.20614643960816       -1.95156930309964       -0.60206542650700
H            3.21995732826851       -0.08464398324603       -1.83857145117338
H            1.45992435224274        1.64945910524934       -2.04791676928406
H           -0.54918456145783        2.73481822979730       -1.16684628773616
