28
 xtb: 6.5.1 (fef0646)
N           -2.63789733286764       -0.40023660893066       -0.09604344537074
C           -2.56092052678760        1.05573679221665       -0.42174623800431
C           -1.46615065687477        1.41057173539146       -1.42896594763580
C           -0.08074821829423        1.11660220900980       -0.93269456832238
C            0.58047132071568       -0.01202346205849       -1.33220287285866
C            1.86508962890834       -0.32882985622785       -0.83518662138819
C            2.55651747215137       -1.49734640710021       -1.23038746311751
C            3.78859362214712       -1.78019120372493       -0.72255564671363
C            4.39234922377415       -0.91436586085164        0.20048100174474
C            3.75521220255123        0.22144307012416        0.60070931858401
C            2.47486330790355        0.54532986315633        0.09509568421713
C            1.77795338737487        1.70942384414342        0.49044115857005
C            0.53975013609277        1.98089715179647       -0.00826457867952
Cl          -4.91028757324297       -1.10536606881164        2.02827064787080
H           -1.67588994418804       -0.71604401306718        0.22828383854698
H           -2.74358799653223       -0.94229983475432       -1.02117594984625
H           -3.31935026189624       -0.64590563196075        0.52220216978980
H           -2.39040599518041        1.61296406229253        0.48211441487977
H           -3.52294994610261        1.37954499984770       -0.82751968819787
H           -1.50688059428869        2.50547672721943       -1.69825575013500
H           -1.61121301036812        0.90911567020942       -2.39380720741062
H            0.11604807139038       -0.67150164725712       -2.03768688505725
H            2.09033868707608       -2.16184753052237       -1.93783005637221
H            4.30269359139957       -2.67770847446184       -1.02896410326160
H            5.36738296360977       -1.15703946538777        0.59448152359817
H            4.22146806616368        0.88196731674894        1.31269567199682
H            2.24425666830026        2.37574821160152        1.20342727862797
H            0.02600048601546        2.87805816931553        0.29978488162004
