 xtb: 6.5.1 (fef0646)
          01242316593D

 28 28  0     0  0            999 V2000
   -2.5498   -0.3998   -0.1876 N   0  0  0  0  0  0  0  0  0  0  0  0
   -2.5341    1.0639   -0.4662 C   0  0  0  0  0  0  0  0  0  0  0  0
   -1.4396    1.4507   -1.4580 C   0  0  0  0  0  0  0  0  0  0  0  0
   -0.0634    1.1385   -0.9484 C   0  0  0  0  0  0  0  0  0  0  0  0
    0.5876   -0.0000   -1.3394 C   0  0  0  0  0  0  0  0  0  0  0  0
    1.8670   -0.3264   -0.8347 C   0  0  0  0  0  0  0  0  0  0  0  0
    2.5545   -1.4974   -1.2287 C   0  0  0  0  0  0  0  0  0  0  0  0
    3.7864   -1.7831   -0.7209 C   0  0  0  0  0  0  0  0  0  0  0  0
    4.3922   -0.9193    0.2021 C   0  0  0  0  0  0  0  0  0  0  0  0
    3.7570    0.2174    0.6040 C   0  0  0  0  0  0  0  0  0  0  0  0
    2.4781    0.5449    0.0977 C   0  0  0  0  0  0  0  0  0  0  0  0
    1.7861    1.7118    0.4928 C   0  0  0  0  0  0  0  0  0  0  0  0
    0.5540    1.9942   -0.0152 C   0  0  0  0  0  0  0  0  0  0  0  0
   -5.0470   -1.1625    2.1591 Cl  0  0  0  0  0  0  0  0  0  0  0  0
   -1.6432   -0.7086    0.1897 H   0  0  0  0  0  0  0  0  0  0  0  0
   -2.7245   -0.9371   -1.0482 H   0  0  0  0  0  0  0  0  0  0  0  0
   -3.2814   -0.6554    0.5004 H   0  0  0  0  0  0  0  0  0  0  0  0
   -2.3869    1.6106    0.4726 H   0  0  0  0  0  0  0  0  0  0  0  0
   -3.5171    1.3766   -0.8393 H   0  0  0  0  0  0  0  0  0  0  0  0
   -1.4981    2.5186   -1.6995 H   0  0  0  0  0  0  0  0  0  0  0  0
   -1.6010    0.9272   -2.4062 H   0  0  0  0  0  0  0  0  0  0  0  0
    0.1185   -0.6663   -2.0418 H   0  0  0  0  0  0  0  0  0  0  0  0
    2.0895   -2.1615   -1.9375 H   0  0  0  0  0  0  0  0  0  0  0  0
    4.3014   -2.6789   -1.0287 H   0  0  0  0  0  0  0  0  0  0  0  0
    5.3673   -1.1590    0.5948 H   0  0  0  0  0  0  0  0  0  0  0  0
    4.2224    0.8804    1.3138 H   0  0  0  0  0  0  0  0  0  0  0  0
    2.2465    2.3750    1.2055 H   0  0  0  0  0  0  0  0  0  0  0  0
    0.0315    2.8830    0.2968 H   0  0  0  0  0  0  0  0  0  0  0  0
  1  2  1  0  0  0  0
  2  3  1  0  0  0  0
  3  4  1  0  0  0  0
  4  5  2  0  0  0  0
  5  6  4  0  0  0  0
  6  7  4  0  0  0  0
  7  8  2  0  0  0  0
  8  9  4  0  0  0  0
  9 10  2  0  0  0  0
  6 11  4  0  0  0  0
 10 11  4  0  0  0  0
 11 12  4  0  0  0  0
  4 13  4  0  0  0  0
 12 13  2  0  0  0  0
  1 15  1  0  0  0  0
  1 16  1  0  0  0  0
  1 17  1  0  0  0  0
  2 18  1  0  0  0  0
  2 19  1  0  0  0  0
  3 20  1  0  0  0  0
  3 21  1  0  0  0  0
  5 22  1  0  0  0  0
  7 23  1  0  0  0  0
  8 24  1  0  0  0  0
  9 25  1  0  0  0  0
 10 26  1  0  0  0  0
 12 27  1  0  0  0  0
 13 28  1  0  0  0  0
M  END
