20
 xtb: 6.5.1 (fef0646)
N           -2.35812424302104        0.89798726526726       -0.09101580538209
C           -1.89764856461747       -0.48660865380560        0.23857071228538
C           -0.39237789594562       -0.58242938979217        0.47988727474007
C            0.46511164172568       -0.21280552891642       -0.73185963992345
C            1.96987658092748       -0.39179478433850       -0.49054157554410
C            2.53691572192968        0.54982113659922        0.56537091997130
H           -2.02099475386074        1.55755690762106        0.65488116697060
H           -3.40570064806135        0.94575934793036       -0.06411368160268
H           -2.04121568165948        1.23082024534439       -0.98924385569717
H           -2.16374726829419       -1.13905749556165       -0.61932412875950
H           -2.44837777407579       -0.87400749372721        1.08453657736494
H           -0.13661739960494       -1.57669639654157        0.83544626729772
H           -0.14524823890131        0.09690071652701        1.31869542115903
H            0.27483235579857        0.80486868561574       -1.03800955459723
H            0.15430315892598       -0.84859862762968       -1.57427428020310
H            2.51341439815467       -0.28792776134343       -1.43272817112202
H            2.16676811078206       -1.43950840902503       -0.17220663622883
H            2.09915047295486        0.41123713807697        1.52756178969241
H            2.36359946671071        1.59584374479418        0.25633064595891
H            3.62452538395411        0.43699940534868        0.65907048213171
