21

N          1.35225       -0.00106       -0.26249
C          2.80159        0.02993       -0.14697
C          3.22763        1.07079        0.87915
C          4.75416        1.13350        0.97244
C          5.22373        2.16742        1.99385
C          6.74214        2.21185        2.07074
Cl        -1.09463       -0.47748        1.04054
H          0.96205       -0.71225       -0.89467
H          0.88190        0.88224       -0.50351
H          0.81698       -0.25000        0.61447
H          3.19246        0.26983       -1.14126
H          3.13038       -0.97512        0.13464
H          2.80658        0.82261        1.86090
H          2.83540        2.05657        0.59948
H          5.16998        1.37997       -0.01263
H          5.14381        0.14575        1.24732
H          4.81984        1.92595        2.98414
H          4.84767        3.16057        1.72216
H          7.14795        1.24018        2.37190
H          7.06588        2.95680        2.80346
H          7.17642        2.47775        1.10096
