 xtb: 6.5.1 (fef0646)
          01232319403D

 26 25  0     0  0            999 V2000
    2.8624    0.9068    1.6139 N   0  0  0  0  0  0  0  0  0  0  0  0
    2.5091    0.2718    0.3456 C   0  0  0  0  0  0  0  0  0  0  0  0
    2.9530   -1.1949    0.3623 C   0  0  0  0  0  0  0  0  0  0  0  0
    4.4467   -1.2981    0.4953 C   0  0  0  0  0  0  0  0  0  0  0  0
    5.0381   -1.4746    1.7375 C   0  0  0  0  0  0  0  0  0  0  0  0
    6.4154   -1.5281    1.8784 C   0  0  0  0  0  0  0  0  0  0  0  0
    7.2321   -1.4008    0.7611 C   0  0  0  0  0  0  0  0  0  0  0  0
    8.5946   -1.4383    0.7764 O   0  0  0  0  0  0  0  0  0  0  0  0
    9.2457   -1.6680    2.0018 C   0  0  0  0  0  0  0  0  0  0  0  0
    6.6434   -1.2184   -0.4914 C   0  0  0  0  0  0  0  0  0  0  0  0
    5.2720   -1.1678   -0.6174 C   0  0  0  0  0  0  0  0  0  0  0  0
    1.6806   -0.5509    3.8464 Cl  0  0  0  0  0  0  0  0  0  0  0  0
    2.5672    1.8761    1.6411 H   0  0  0  0  0  0  0  0  0  0  0  0
    3.8667    0.8580    1.7593 H   0  0  0  0  0  0  0  0  0  0  0  0
    2.2294    0.1416    2.7737 H   0  0  0  0  0  0  0  0  0  0  0  0
    2.9722    0.7840   -0.5095 H   0  0  0  0  0  0  0  0  0  0  0  0
    1.4238    0.3266    0.2364 H   0  0  0  0  0  0  0  0  0  0  0  0
    2.6252   -1.6669   -0.5648 H   0  0  0  0  0  0  0  0  0  0  0  0
    2.4694   -1.6932    1.2016 H   0  0  0  0  0  0  0  0  0  0  0  0
    4.4137   -1.5787    2.6126 H   0  0  0  0  0  0  0  0  0  0  0  0
    6.8345   -1.6706    2.8619 H   0  0  0  0  0  0  0  0  0  0  0  0
   10.3092   -1.6937    1.7702 H   0  0  0  0  0  0  0  0  0  0  0  0
    8.9482   -2.6252    2.4415 H   0  0  0  0  0  0  0  0  0  0  0  0
    9.0521   -0.8631    2.7185 H   0  0  0  0  0  0  0  0  0  0  0  0
    7.2876   -1.1234   -1.3512 H   0  0  0  0  0  0  0  0  0  0  0  0
    4.8330   -1.0321   -1.5955 H   0  0  0  0  0  0  0  0  0  0  0  0
  1  2  1  0  0  0  0
  2  3  1  0  0  0  0
  3  4  1  0  0  0  0
  4  5  4  0  0  0  0
  5  6  4  0  0  0  0
  6  7  4  0  0  0  0
  7  8  1  0  0  0  0
  8  9  1  0  0  0  0
  7 10  4  0  0  0  0
  4 11  4  0  0  0  0
 10 11  4  0  0  0  0
  1 13  1  0  0  0  0
  1 14  1  0  0  0  0
 12 15  1  0  0  0  0
  2 16  1  0  0  0  0
  2 17  1  0  0  0  0
  3 18  1  0  0  0  0
  3 19  1  0  0  0  0
  5 20  1  0  0  0  0
  6 21  1  0  0  0  0
  9 22  1  0  0  0  0
  9 23  1  0  0  0  0
  9 24  1  0  0  0  0
 10 25  1  0  0  0  0
 11 26  1  0  0  0  0
M  END
