12
0.0
N            1.10671   1.15087   0.23842
C            2.03031   0.18162  -0.42270
C            1.94431  -1.20013   0.19538
Cl          -2.15965  -0.11416  -0.02993
H            1.15268   2.08657  -0.18882
H            1.33023   1.24773   1.23808
H            0.12840   0.82065   0.17339
H            3.05938   0.55980  -0.36687
H            1.79970   0.13146  -1.49476
H            2.20342  -1.17429   1.25507
H            2.61555  -1.91157  -0.29041
H            0.93169  -1.60093   0.12293
