36
0.289
N           -4.99798   0.16650   1.64774
C           -5.04582   1.53344   1.05784
C           -4.36535   1.58931  -0.30727
C           -2.94594   1.10538  -0.26745
C           -1.91185   1.96314   0.07785
C           -0.61148   1.50925   0.15067
C           -0.30279   0.17494  -0.11539
C            1.06000  -0.34152  -0.04584
C            2.16725   0.40994   0.02748
C            3.52991  -0.10572   0.09818
C            4.60342   0.76437  -0.08953
C            5.91005   0.32103  -0.03126
F            6.93644   1.18681  -0.22325
C            6.15996  -1.01611   0.22359
C            5.11425  -1.89500   0.41878
C            3.81078  -1.44804   0.35817
C           -1.35006  -0.68476  -0.44582
C           -2.64754  -0.22602  -0.51918
Cl          -5.68592  -2.08611  -0.92245
H           -5.55969   0.08718   2.51185
H           -4.02464  -0.10096   1.87867
H           -5.34645  -0.53169   0.97125
H           -4.56283   2.23923   1.74370
H           -6.08907   1.86403   0.97630
H           -4.38998   2.60884  -0.71046
H           -4.92763   0.97867  -1.02290
H           -2.13740   2.99459   0.29461
H            0.17171   2.19186   0.43276
H            1.16455  -1.41182  -0.08308
H            2.06634   1.48106   0.00810
H            4.42296   1.80546  -0.29069
H            7.18166  -1.35111   0.26733
H            5.31824  -2.93469   0.62163
H            3.00394  -2.14018   0.52780
H           -1.13352  -1.72117  -0.64718
H           -3.44918  -0.90452  -0.76346
