 xtb: 6.5.1 (fef0646)
          01242316093D

 30 28  0     0  0            999 V2000
    2.8875    1.1046   -2.5648 N   0  0  0  0  0  0  0  0  0  0  0  0
    4.3526    0.9401   -2.6680 C   0  0  0  0  0  0  0  0  0  0  0  0
    4.9468    0.4248   -1.3635 C   0  0  0  0  0  0  0  0  0  0  0  0
    4.5890   -1.0292   -1.0483 C   0  0  0  0  0  0  0  0  0  0  0  0
    5.1442   -2.0555   -2.0385 C   0  0  0  0  0  0  0  0  0  0  0  0
    6.6687   -2.0614   -2.1350 C   0  0  0  0  0  0  0  0  0  0  0  0
    7.1767   -3.1976   -3.0198 C   0  0  0  0  0  0  0  0  0  0  0  0
    8.6986   -3.1892   -3.1483 C   0  0  0  0  0  0  0  0  0  0  0  0
    9.1990   -4.2994   -4.0648 C   0  0  0  0  0  0  0  0  0  0  0  0
    0.9967   -1.2655   -2.1330 Cl  0  0  0  0  0  0  0  0  0  0  0  0
    2.4967    1.4906   -3.4269 H   0  0  0  0  0  0  0  0  0  0  0  0
    2.6470    1.7163   -1.7808 H   0  0  0  0  0  0  0  0  0  0  0  0
    2.3866    0.1984   -2.3973 H   0  0  0  0  0  0  0  0  0  0  0  0
    4.7934    1.9091   -2.9046 H   0  0  0  0  0  0  0  0  0  0  0  0
    4.5707    0.2460   -3.4772 H   0  0  0  0  0  0  0  0  0  0  0  0
    4.5998    1.0487   -0.5389 H   0  0  0  0  0  0  0  0  0  0  0  0
    6.0303    0.5232   -1.4113 H   0  0  0  0  0  0  0  0  0  0  0  0
    3.5046   -1.1491   -1.0147 H   0  0  0  0  0  0  0  0  0  0  0  0
    4.9719   -1.2682   -0.0537 H   0  0  0  0  0  0  0  0  0  0  0  0
    4.7141   -1.8939   -3.0281 H   0  0  0  0  0  0  0  0  0  0  0  0
    4.8073   -3.0443   -1.7157 H   0  0  0  0  0  0  0  0  0  0  0  0
    7.0928   -2.1686   -1.1338 H   0  0  0  0  0  0  0  0  0  0  0  0
    7.0209   -1.1166   -2.5506 H   0  0  0  0  0  0  0  0  0  0  0  0
    6.7311   -3.1081   -4.0136 H   0  0  0  0  0  0  0  0  0  0  0  0
    6.8544   -4.1557   -2.6037 H   0  0  0  0  0  0  0  0  0  0  0  0
    9.1439   -3.3081   -2.1579 H   0  0  0  0  0  0  0  0  0  0  0  0
    9.0211   -2.2234   -3.5432 H   0  0  0  0  0  0  0  0  0  0  0  0
    8.8983   -5.2731   -3.6838 H   0  0  0  0  0  0  0  0  0  0  0  0
   10.2838   -4.2784   -4.1357 H   0  0  0  0  0  0  0  0  0  0  0  0
    8.7862   -4.1827   -5.0644 H   0  0  0  0  0  0  0  0  0  0  0  0
  1  2  1  0  0  0  0
  2  3  1  0  0  0  0
  3  4  1  0  0  0  0
  4  5  1  0  0  0  0
  5  6  1  0  0  0  0
  6  7  1  0  0  0  0
  7  8  1  0  0  0  0
  8  9  1  0  0  0  0
  1 11  1  0  0  0  0
  1 12  1  0  0  0  0
  1 13  1  0  0  0  0
  2 14  1  0  0  0  0
  2 15  1  0  0  0  0
  3 16  1  0  0  0  0
  3 17  1  0  0  0  0
  4 18  1  0  0  0  0
  4 19  1  0  0  0  0
  5 20  1  0  0  0  0
  5 21  1  0  0  0  0
  6 22  1  0  0  0  0
  6 23  1  0  0  0  0
  7 24  1  0  0  0  0
  7 25  1  0  0  0  0
  8 26  1  0  0  0  0
  8 27  1  0  0  0  0
  9 28  1  0  0  0  0
  9 29  1  0  0  0  0
  9 30  1  0  0  0  0
M  END
