22
0.578
N           -3.73155  -0.97305  -0.08906
C           -3.33704   0.45398   0.12361
C           -1.86823   0.68933   0.18595
C           -0.93564  -0.25579  -0.07331
C            0.48076  -0.07700  -0.04141
C            1.32477  -1.17192  -0.33299
C            2.69341  -1.03574  -0.31212
C            3.26968   0.18807  -0.00255
C            2.46389   1.28006   0.28751
C            1.09350   1.15769   0.27048
H           -4.75201  -1.07876  -0.08797
H           -3.35502  -1.56864   0.65658
H           -3.38584  -1.31858  -0.99115
H           -3.80002   0.81202   1.05129
H           -3.76642   1.06312  -0.68138
H           -1.54297   1.68271   0.43946
H           -1.28140  -1.24063  -0.32724
H            0.88433  -2.12413  -0.57396
H            3.32191  -1.88220  -0.53696
H            4.34267   0.29052   0.01231
H            2.91573   2.22914   0.52679
H            0.48596   2.01556   0.49647
