34
2.031
N            2.55739   1.71928  -0.89831
C            2.92325   0.58945  -1.79883
C            2.93883  -0.74772  -1.06115
C            1.64182  -1.03898  -0.36916
C            0.57447  -1.58734  -1.06569
C           -0.63451  -1.80145  -0.44349
C            1.46464  -0.70232   0.96557
C            0.25837  -0.91537   1.59267
C           -0.81276  -1.46459   0.89467
N           -2.05658  -1.62372   1.50763
N           -3.09160  -1.06147   1.10188
C           -3.09880  -0.11607   0.07455
C           -3.87828  -0.31143  -1.06265
C           -3.85910   0.60564  -2.09000
C           -3.06496   1.73259  -1.99881
C           -2.29077   1.94177  -0.87408
C           -2.30804   1.02677   0.15495
Cl           4.27122   1.16323   2.13741
H            2.66048   2.63675  -1.35437
H            3.14727   1.70862  -0.05240
H            1.57843   1.62994  -0.58150
H            3.90176   0.78193  -2.25556
H            2.21055   0.54647  -2.63049
H            3.74480  -0.74838  -0.31933
H            3.17481  -1.56697  -1.74965
H            0.69839  -1.83566  -2.10614
H           -1.46472  -2.21658  -0.98779
H            2.28072  -0.24933   1.50340
H            0.12120  -0.64255   2.62444
H           -4.48920  -1.19502  -1.12720
H           -4.46365   0.44306  -2.96749
H           -3.05065   2.44890  -2.80404
H           -1.67437   2.82291  -0.80097
H           -1.70615   1.17910   1.03375
