34
 xtb: 6.5.1 (fef0646)
N            2.53706378137455        1.72566685803239       -0.93880727862287
C            2.92827754912141        0.58439652968076       -1.81384149589495
C            2.94619681355213       -0.74139388015729       -1.05633428815900
C            1.64664550036847       -1.02915302064665       -0.36718872463465
C            0.56691160042455       -1.53955344694010       -1.07566594638775
C           -0.64208935450423       -1.75272106030470       -0.45391443741797
C            1.48148536315670       -0.72919027469204        0.97823935871307
C            0.27520291488230       -0.94316507658115        1.60521865801207
C           -0.80852688049084       -1.45411578172659        0.89621255324625
N           -2.04858503125947       -1.61013737556825        1.51470964998090
N           -3.08845216232271       -1.05255202419529        1.10842608725250
C           -3.10384497361703       -0.11465795705082        0.07528605600348
C           -3.89551100854953       -0.31888255218470       -1.05236958912204
C           -3.88416717642527        0.58740672636534       -2.08927518525560
C           -3.08706637317053        1.71380990143600       -2.01689825954556
C           -2.30234394455068        1.93313194382499       -0.90122147192701
C           -2.31074036002272        1.02816534196993        0.13686897280868
Cl           4.30734596504555        1.13705280366175        2.19498213007713
H            2.64711033449964        2.63635446216355       -1.37154067870357
H            3.14319377881967        1.72090961724405       -0.06643098360618
H            1.57418236994383        1.62593277647766       -0.58982543541332
H            3.90409156397050        0.78164008007752       -2.25742994028917
H            2.21483416931749        0.53973875180766       -2.63699524331312
H            3.74576560352297       -0.74300288135948       -0.31670233704258
H            3.17896859872893       -1.56758260833392       -1.74475338145165
H            0.69349873231575       -1.81301424175143       -2.11149693816318
H           -1.46952330869815       -2.19388445145653       -0.99340443895579
H            2.28803690772804       -0.26419283716329        1.50924812741498
H            0.12870308539255       -0.65890699942312        2.63059994866338
H           -4.49489441761548       -1.19701909917182       -1.11982378237031
H           -4.47335903402755        0.43549988283125       -2.96517377136785
H           -3.05878283576954        2.44102693058099       -2.81148499865619
H           -1.67717618946275        2.82043517191657       -0.81318642810843
H           -1.70411604649868        1.18153550672985        1.02628368279258
