 xtb: 6.5.1 (fef0646)
          01232318583D

 14 12  0     0  0            999 V2000
    1.1170    0.2570    0.5381 N   0  0  0  0  0  0  0  0  0  0  0  0
    2.5517    0.1683    0.2716 C   0  0  0  0  0  0  0  0  0  0  0  0
    2.8382    0.7079   -1.1325 C   0  0  0  0  0  0  0  0  0  0  0  0
    2.5794    2.1320   -1.2000 C   0  0  0  0  0  0  0  0  0  0  0  0
    2.3494    3.3066   -1.1964 C   0  0  0  0  0  0  0  0  0  0  0  0
   -0.2304   -1.5054   -1.3704 Cl  0  0  0  0  0  0  0  0  0  0  0  0
    0.8921   -0.0402    1.4813 H   0  0  0  0  0  0  0  0  0  0  0  0
    0.3894   -0.6644   -0.4712 H   0  0  0  0  0  0  0  0  0  0  0  0
    0.7957    1.2112    0.4011 H   0  0  0  0  0  0  0  0  0  0  0  0
    2.8366   -0.8850    0.3243 H   0  0  0  0  0  0  0  0  0  0  0  0
    3.1449    0.7293    1.0078 H   0  0  0  0  0  0  0  0  0  0  0  0
    2.1987    0.1901   -1.8501 H   0  0  0  0  0  0  0  0  0  0  0  0
    3.8823    0.5208   -1.3922 H   0  0  0  0  0  0  0  0  0  0  0  0
    2.1629    4.3390   -1.2296 H   0  0  0  0  0  0  0  0  0  0  0  0
  1  2  1  0  0  0  0
  2  3  1  0  0  0  0
  3  4  1  0  0  0  0
  4  5  3  0  0  0  0
  1  7  1  0  0  0  0
  6  8  1  0  0  0  0
  1  9  1  0  0  0  0
  2 10  1  0  0  0  0
  2 11  1  0  0  0  0
  3 12  1  0  0  0  0
  3 13  1  0  0  0  0
  5 14  1  0  0  0  0
M  END
