18
0.0
N           -2.35711  -1.90668  -0.47884
C           -0.88214  -2.11926  -0.52312
C           -0.19173  -1.76671   0.79114
C           -0.33989  -0.29966   1.19868
C            0.25551   0.66696   0.18920
Br           2.12660   0.35001  -0.15847
Cl          -3.17464   1.51383  -0.07376
H           -2.58761  -0.90845  -0.33858
H           -2.77889  -2.43225   0.29780
H           -2.81483  -2.20869  -1.34952
H           -0.45218  -1.53165  -1.34186
H           -0.67804  -3.16547  -0.78355
H            0.87546  -2.01028   0.72265
H           -0.58566  -2.41260   1.58517
H            0.14610  -0.13874   2.17000
H           -1.39899  -0.06587   1.36508
H            0.16734   1.70323   0.52374
H           -0.25712   0.60176  -0.77184
