18
1.904
N           -3.15957  -2.17823  -0.20072
C           -1.73123  -1.99422  -0.58806
C           -1.03548  -0.93673   0.26001
C            0.42836  -0.72157  -0.13280
C            1.12323   0.33364   0.70779
Br           2.96949   0.61064   0.21215
Cl          -4.66618   0.98574  -0.48789
H           -3.67218  -1.28457  -0.28776
H           -3.23814  -2.48232   0.77803
H           -3.63449  -2.87485  -0.78995
H           -1.66867  -1.71723  -1.64697
H           -1.19741  -2.94801  -0.50449
H           -1.09678  -1.21537   1.31787
H           -1.58073   0.01073   0.18378
H            0.49153  -0.44294  -1.19168
H            0.97691  -1.66814  -0.05563
H            1.10991   0.06260   1.76518
H            0.61795   1.29747   0.62139
