  15

 N          3.0679963042       -0.5626998242       -1.2238049908
 C          2.5742427914        0.1353757153       -0.0147766637
 C          2.9768882944       -0.5929729487        1.2251334957
 C          3.3214122045       -0.0871848887        2.4385168566
 C          3.5968582636       -1.0940923484        3.3940516921
 C          3.4631067690       -2.3483568977        2.8963494814
 S          2.9834087494       -2.3369619428        1.2563680104
 H          2.7764950882       -0.0687146541       -2.0751842208
 H          2.6923870106       -1.5192293467       -1.2430478999
 H          4.0923856395       -0.6295655880       -1.2059987196
 H          1.4838401165        0.1946491107       -0.0633953050
 H          2.9723750952        1.1502234266        0.0229686282
 H          3.3804342897        0.9621102810        2.6610674686
 H          3.8881614393       -0.8927984041        4.4094801813
 H          3.6178679446       -3.2878716903        3.3897319854
