26
 xtb: 6.5.1 (fef0646)
N           -4.56366971152034       -0.67125386127111       -0.95483872646879
C           -4.63547481657827        0.48522276470327       -0.01660551097486
C           -3.48887385629491        1.47272400050543       -0.22786219142221
C           -2.16683432473087        0.91469079547867        0.16940153208652
C           -1.57639639733665        1.08208857588993        1.38084472448705
C           -0.31780108852197        0.43586216253150        1.50099661149536
C            0.06625994908034       -0.23612980252718        0.37702244125685
C            1.29974905031470       -0.96737274028040        0.21479381601640
C            1.70636386493609       -1.59121263248378       -0.93040431817665
C            2.96978020094382       -2.23043467184860       -0.81645316301454
C            3.52831650709835       -2.09946487926183        0.40885142134383
S            2.49994631959591       -1.20077382291307        1.47133569814656
S           -1.15616861932106       -0.07542814228406       -0.85357550141455
Cl           2.15372551772833        2.41126852997517       -0.83264273573602
H           -5.17750450344993       -1.43272587170030       -0.73829595210188
H           -3.56777497777742       -1.03664081171478       -0.94519660949683
H           -4.71013848708033       -0.36702111958944       -1.93685594491304
H           -4.60609424739450        0.10757137835328        1.00957377137665
H           -5.60355218895922        0.96549173710930       -0.14225827351996
H           -3.67985411568052        2.39535802824366        0.35176868868308
H           -3.45057556486731        1.78615530446677       -1.27039130911883
H           -2.02491528707734        1.65315308840041        2.18335965828822
H            0.28854568811970        0.47007759354881        2.39274516058624
H            1.09299030627745       -1.62771375218085       -1.82218824761724
H            3.41046190609759       -2.80418865261557       -1.61979494088591
H            4.47813482835380       -2.49690873019262        0.69872327121170
