 xtb: 6.5.1 (fef0646)
          01242310053D

 21 21  0     0  0            999 V2000
   -3.7397   -0.5213    0.6467 N   0  0  0  0  0  0  0  0  0  0  0  0
   -3.1028    0.8287    0.5720 C   0  0  0  0  0  0  0  0  0  0  0  0
   -2.1464    0.9759   -0.6210 C   0  0  0  0  0  0  0  0  0  0  0  0
   -0.7667    0.4594   -0.3578 C   0  0  0  0  0  0  0  0  0  0  0  0
   -0.4955   -0.9044   -0.2965 C   0  0  0  0  0  0  0  0  0  0  0  0
   -1.4839   -1.7895   -0.4038 F   0  0  0  0  0  0  0  0  0  0  0  0
    0.8028   -1.3604   -0.0760 C   0  0  0  0  0  0  0  0  0  0  0  0
    1.0442   -2.6698   -0.0137 F   0  0  0  0  0  0  0  0  0  0  0  0
    1.8399   -0.4539    0.0943 C   0  0  0  0  0  0  0  0  0  0  0  0
    3.0840   -0.8905    0.3040 F   0  0  0  0  0  0  0  0  0  0  0  0
    1.5772    0.9082    0.0538 C   0  0  0  0  0  0  0  0  0  0  0  0
    2.5653    1.7851    0.2330 F   0  0  0  0  0  0  0  0  0  0  0  0
    0.2778    1.3592   -0.1671 C   0  0  0  0  0  0  0  0  0  0  0  0
    0.0269    2.6690   -0.1757 F   0  0  0  0  0  0  0  0  0  0  0  0
   -4.4549   -0.6412   -0.0855 H   0  0  0  0  0  0  0  0  0  0  0  0
   -4.1893   -0.6966    1.5581 H   0  0  0  0  0  0  0  0  0  0  0  0
   -3.0233   -1.2418    0.4881 H   0  0  0  0  0  0  0  0  0  0  0  0
   -2.5523    1.0288    1.5019 H   0  0  0  0  0  0  0  0  0  0  0  0
   -3.8997    1.5861    0.5306 H   0  0  0  0  0  0  0  0  0  0  0  0
   -2.0595    2.0328   -0.9117 H   0  0  0  0  0  0  0  0  0  0  0  0
   -2.5592    0.4577   -1.4954 H   0  0  0  0  0  0  0  0  0  0  0  0
  1  2  1  0  0  0  0
  2  3  1  0  0  0  0
  3  4  1  0  0  0  0
  4  5  4  0  0  0  0
  5  6  1  0  0  0  0
  5  7  4  0  0  0  0
  7  8  1  0  0  0  0
  7  9  4  0  0  0  0
  9 10  1  0  0  0  0
  9 11  4  0  0  0  0
 11 12  1  0  0  0  0
  4 13  4  0  0  0  0
 11 13  4  0  0  0  0
 13 14  1  0  0  0  0
  1 15  1  0  0  0  0
  1 16  1  0  0  0  0
  1 17  1  0  0  0  0
  2 18  1  0  0  0  0
  2 19  1  0  0  0  0
  3 20  1  0  0  0  0
  3 21  1  0  0  0  0
M  CHG  1   1   1
M  END
