 xtb: 6.5.1 (fef0646)
          01242310093D

 26 26  0     0  0            999 V2000
   -3.4033    0.4104   -1.5836 N   0  0  0  0  0  0  0  0  0  0  0  0
   -3.1808    1.7405   -0.9534 C   0  0  0  0  0  0  0  0  0  0  0  0
   -2.5357    1.6152    0.4244 C   0  0  0  0  0  0  0  0  0  0  0  0
   -1.2878    0.8059    0.3972 C   0  0  0  0  0  0  0  0  0  0  0  0
   -1.2141   -0.5283    0.6396 C   0  0  0  0  0  0  0  0  0  0  0  0
    0.0981   -1.0607    0.5238 C   0  0  0  0  0  0  0  0  0  0  0  0
    1.0412   -0.1300    0.1876 C   0  0  0  0  0  0  0  0  0  0  0  0
    2.4533   -0.3770   -0.0045 C   0  0  0  0  0  0  0  0  0  0  0  0
    3.0882   -1.5808    0.1319 C   0  0  0  0  0  0  0  0  0  0  0  0
    4.4864   -1.5222   -0.1213 C   0  0  0  0  0  0  0  0  0  0  0  0
    4.9199   -0.2831   -0.4493 C   0  0  0  0  0  0  0  0  0  0  0  0
    3.6140    0.8443   -0.4538 S   0  0  0  0  0  0  0  0  0  0  0  0
    0.2853    1.4303    0.0168 S   0  0  0  0  0  0  0  0  0  0  0  0
   -4.5433   -1.7851    0.8858 Cl  0  0  0  0  0  0  0  0  0  0  0  0
   -3.9554    0.4707   -2.4597 H   0  0  0  0  0  0  0  0  0  0  0  0
   -3.8966   -0.2224   -0.9327 H   0  0  0  0  0  0  0  0  0  0  0  0
   -2.5029   -0.0403   -1.8098 H   0  0  0  0  0  0  0  0  0  0  0  0
   -4.1326    2.2818   -0.8809 H   0  0  0  0  0  0  0  0  0  0  0  0
   -2.5427    2.3460   -1.6086 H   0  0  0  0  0  0  0  0  0  0  0  0
   -3.2425    1.1515    1.1227 H   0  0  0  0  0  0  0  0  0  0  0  0
   -2.3132    2.6056    0.8399 H   0  0  0  0  0  0  0  0  0  0  0  0
   -2.0823   -1.1251    0.8778 H   0  0  0  0  0  0  0  0  0  0  0  0
    0.3269   -2.1036    0.6819 H   0  0  0  0  0  0  0  0  0  0  0  0
    2.5764   -2.4902    0.4077 H   0  0  0  0  0  0  0  0  0  0  0  0
    5.1357   -2.3841   -0.0570 H   0  0  0  0  0  0  0  0  0  0  0  0
    5.9357   -0.0181   -0.6790 H   0  0  0  0  0  0  0  0  0  0  0  0
  1  2  1  0  0  0  0
  2  3  1  0  0  0  0
  3  4  1  0  0  0  0
  4  5  2  0  0  0  0
  5  6  4  0  0  0  0
  6  7  2  0  0  0  0
  7  8  1  0  0  0  0
  8  9  2  0  0  0  0
  9 10  4  0  0  0  0
 10 11  2  0  0  0  0
  8 12  1  0  0  0  0
 11 12  1  0  0  0  0
  4 13  1  0  0  0  0
  7 13  1  0  0  0  0
  1 15  1  0  0  0  0
  1 16  1  0  0  0  0
  1 17  1  0  0  0  0
  2 18  1  0  0  0  0
  2 19  1  0  0  0  0
  3 20  1  0  0  0  0
  3 21  1  0  0  0  0
  5 22  1  0  0  0  0
  6 23  1  0  0  0  0
  9 24  1  0  0  0  0
 10 25  1  0  0  0  0
 11 26  1  0  0  0  0
M  END
