22
 xtb: 6.5.1 (fef0646)
N           -2.71532509765889       -1.96908089596967       -0.67721020335247
C           -1.29075400377316       -1.72987275110257       -0.30609228364611
C           -0.82520729448754       -0.31702764730599       -0.65689950279046
C            0.63271393634480       -0.03896232952482       -0.40526055764909
C            1.44565646761842       -0.89739592777586        0.32392079798351
C            2.77288623588222       -0.59648314106826        0.54721674720475
C            3.32342625972400        0.57111319666499        0.05010211111545
F            4.63160342624026        0.86926957268847        0.27764699494942
C            2.52210716859570        1.43040346682375       -0.67937560048341
C            1.19447869279117        1.12972578410157       -0.90105560690803
Cl          -4.57897890878628        0.73416346401454        0.96254228977472
H           -3.07425369962690       -2.86220625604219       -0.33445340289588
H           -2.88899988633583       -1.84736714614568       -1.64128704336197
H           -3.33053384924771       -1.22421044427484       -0.16787402343240
H           -0.69120455641629       -2.48180933680151       -0.76544478146727
H           -1.17098069098809       -1.86387016879198        0.80019846536283
H           -1.42367555211988        0.42784494160611       -0.16331919929638
H           -1.01663108609917       -0.17478368371997       -1.74371498044083
H            1.05662609177647       -1.84051334010420        0.66893565862226
H            3.41641801236595       -1.28579127907276        1.06530484255136
H            2.93525305855336        2.36553394769646       -1.01310673856181
H            0.56208936151527        1.82842866892625       -1.42228517517342
