48
1.126
N           -7.61102  -0.10463   1.82858
C           -8.13938   1.02170   1.01376
C           -7.48042   1.07517  -0.36225
C           -5.99734   1.15939  -0.27985
C           -5.28306   2.30592  -0.13805
C           -3.88088   2.10005  -0.07360
C           -3.51512   0.78714  -0.16450
C           -2.16236   0.29394  -0.13572
C           -1.78518  -1.01509  -0.22982
C           -0.38183  -1.22860  -0.18875
C            0.19882  -2.59605  -0.28570
C            0.34440  -0.05835  -0.06296
C            1.78284   0.06284  -0.01403
C            2.50610   1.23261   0.13099
C            1.92715   2.50860   0.26144
N            1.41566   3.54524   0.37107
C            3.93218   1.03942   0.12977
C            4.84570   2.10858   0.20566
N            5.62901   2.96281   0.28033
C            4.30412  -0.28391   0.00037
C            5.64541  -0.83954  -0.03950
C            6.74115  -0.49391   0.72421
C            6.74734   0.52494   1.81033
C            7.90943  -1.24058   0.38201
C            7.71349  -2.15296  -0.59594
S            6.08121  -2.12826  -1.13139
S            2.88793  -1.26945  -0.14207
S           -0.75844   1.29374   0.02257
S           -4.93192  -0.21276  -0.32476
Cl          -7.35675  -2.51043  -0.58876
H           -8.13633  -0.24549   2.71138
H           -6.61989   0.05039   2.06731
H           -7.64851  -0.97846   1.27998
H           -7.97075   1.96502   1.54655
H           -9.22758   0.92584   0.91110
H           -7.86174   1.92279  -0.94425
H           -7.74663   0.17854  -0.93299
H           -5.74341   3.28074  -0.08021
H           -3.16319   2.89923   0.03284
H           -2.49802  -1.81798  -0.33412
H            0.83152  -2.68611  -1.16960
H           -0.58301  -3.35326  -0.35565
H            0.80535  -2.82236   0.59207
H            5.75860   0.62684   2.25794
H            7.04558   1.50043   1.42304
H            7.44455   0.24878   2.60233
H            8.85987  -1.08476   0.87081
H            8.46211  -2.81237  -0.99443
