  25

 N         -2.9634003967       -1.1582063764        0.3030756633
 C         -2.0365689878       -1.6276043213       -0.7607729089
 C         -0.6139235357       -1.2836671038       -0.4533579677
 C          0.2710841478       -2.2621272627        0.0359216341
 C          1.5634570272       -1.9500611978        0.3455211881
 C         -0.1689163117        0.0034895986       -0.6037870116
 C          1.1615194235        0.3624857569       -0.2940289913
 C          2.0444707576       -0.6317844280        0.1872084384
 C          3.3752632783       -0.2722382514        0.4979081724
 C          3.8034580887        1.0139033367        0.3371444203
 C          2.9286023058        1.9984643827       -0.1378232267
 C          1.6367317898        1.6843000727       -0.4467281825
 Cl        -2.6426082017        2.3130481611        0.5830678339
 H         -3.9494203292       -1.3854807620        0.0926139772
 H         -2.8932250239       -0.1295934659        0.4211195521
 H         -2.7254852028       -1.5859104216        1.2114072761
 H         -2.3173808102       -1.1849277172       -1.7237122651
 H         -2.1357315405       -2.7113693270       -0.8924415758
 H         -0.0874030191       -3.2700872744        0.1667489830
 H          2.2325951312       -2.7084512997        0.7175795481
 H         -0.8478236663        0.7616926334       -0.9552871683
 H          4.0485802814       -1.0293438030        0.8648506269
 H          4.8217478990        1.2765652123        0.5775523417
 H          3.2806230215        3.0109264766       -0.2591677944
 H          0.9626145081        2.4423047907       -0.8106264601
          25
        -37.08617798
 N         -2.9838342421       -1.4161016521       -0.6460030016
 C         -2.0630346604       -2.0304226243        0.3489864203
 C         -0.6554406321       -1.5385468837        0.2141153454
 C          0.4147907157       -2.4474015634        0.1106318994
 C          1.7030434517       -2.0099366122       -0.0023460425
 C         -0.3887579434       -0.1950846744        0.2012140139
 C          0.9304559485        0.2938245827        0.0841192028
 C          1.9964931735       -0.6288150394       -0.0186285448
 C          3.3165103078       -0.1377571889       -0.1339939814
 C          3.5596086811        1.2055025555       -0.1474678994
 C          2.5029876451        2.1188849054       -0.0474823276
 C          1.2165771948        1.6771842942        0.0659702105
 Cl        -3.0444403692        2.0417905331        0.0588449495
 H         -2.6400490562       -1.5719250565       -1.6067811053
 H         -3.0509616104       -0.3905238951       -0.5051909009
 H         -3.9400476308       -1.8023827100       -0.5852300049
 H         -2.0824657403       -3.1211982031        0.2417402711
 H         -2.4204408243       -1.8251344396        1.3648963486
 H          0.2039433057       -3.5042861589        0.1230313639
 H          2.5133076626       -2.7161492032       -0.0801359677
 H         -1.1987326006        0.5102087815        0.2747130750
 H          4.1299675826       -0.8402599305       -0.2111573064
 H          4.5714779953        1.5688284020       -0.2356524126
 H          2.7101538222        3.1774767166       -0.0601715921
 H          0.4017271695        2.3783762294        0.1422205895
          25
        -37.08628810
 N         -2.9854798397        1.4163027990        0.6364591252
 C         -2.0625774886        2.0307195330       -0.3562792937
 C         -0.6553841826        1.5386028703       -0.2182790829
 C          0.4136301077        2.4475792745       -0.1031985038
 C          1.7014441826        2.0101671653        0.0144977554
 C         -0.3878871279        0.1952334849       -0.2126999315
 C          0.9311116481       -0.2935425392       -0.0922885880
 C          1.9958362503        0.6291922261        0.0232453793
 C          3.3153262039        0.1383075339        0.1447343817
 C          3.5595726079       -1.2047849034        0.1507644002
 C          2.5044648892       -2.1182700817        0.0368852831
 C          1.2184807408       -1.6767300079       -0.0819765474
 Cl        -3.0439211507       -2.0433195432       -0.0473731290
 H         -2.6456332349        1.5747166615        1.5981582448
 H         -3.0502037124        0.3902458298        0.4978378822
 H         -3.9422820773        1.8003751729        0.5718165399
 H         -2.0819904871        3.1215201537       -0.2487016564
 H         -2.4179678905        1.8259567672       -1.3730630023
 H          0.2020564850        3.5043659066       -0.1099112419
 H          2.5106619631        2.7164469968        0.1021490953
 H         -1.1973118250       -0.5100264488       -0.2926881961
 H          4.1275366056        0.8409144822        0.2332004372
 H          4.5709647734       -1.5681680725        0.2441319870
 H          2.7125054303       -3.1767437128        0.0436343407
 H          0.4048069925       -2.3781973882       -0.1676408988
