22
 xtb: 6.5.1 (fef0646)
N           -4.29592980148364        0.90087171356349       -0.01324092437280
C           -3.28629378931769        1.97821359634149       -0.24536404500881
C           -2.24473365591377        2.06727322387247        0.88250219803440
C           -0.94039881473940        1.40843103955927        0.53691886092831
C           -0.82810693122485        0.02656831958277        0.51861028747230
C            0.36744314356561       -0.58214967698946        0.18496629589536
C            1.46609074115383        0.18437835047231       -0.14272118563840
Br           3.10940351965714       -0.65558006687594       -0.60305805164379
C            1.36642227373590        1.55991029884190       -0.13936039591367
C            0.17087337644849        2.16926633612867        0.19773014123795
Cl          -3.31102205283111       -2.23975358458158        0.66798213440716
H           -4.86127632957153        1.16831613984720        0.82879872197022
H           -3.89992268646045        0.01699775377654        0.11993369003584
H           -4.98205544056484        0.88445559597650       -0.80371706300766
H           -3.78094185861041        2.96792984097656       -0.39324146579407
H           -2.77191672226700        1.80568551291354       -1.21089677769573
H           -2.65410033054507        1.61678530810049        1.77794960082540
H           -2.04869220519982        3.11946203253707        1.14520159931352
H           -1.70711729268590       -0.56947743757915        0.69249861036271
H            0.43483254165187       -1.65356858808681        0.11044750031353
H            2.24786307473644        2.14829724667216       -0.34342960819046
H            0.11225304723954        3.24488182215611        0.24636431572939
