21
2.735
N           -3.50860  -1.11478  -0.60412
C           -2.94213   0.26890  -0.52982
C           -2.00818   0.48053   0.67488
C           -0.54009   0.31092   0.39033
C            0.39432   1.04785   1.11712
C            1.74711   0.89530   0.89875
C            2.20724  -0.00902  -0.05338
F            3.50511  -0.15927  -0.26442
C            1.28356  -0.75665  -0.77684
C           -0.06752  -0.59887  -0.55235
H           -4.11998  -1.29746   0.19868
H           -2.77212  -1.82817  -0.59642
H           -4.06384  -1.24370  -1.45680
H           -3.78273   0.97452  -0.48967
H           -2.41069   0.50841  -1.45866
H           -2.29093  -0.20485   1.48033
H           -2.16066   1.48696   1.08278
H            0.05153   1.74569   1.86324
H            2.46988   1.46604   1.45781
H            1.64906  -1.45784  -1.50851
H           -0.76583  -1.18668  -1.12010
