 xtb: 6.5.1 (fef0646)
          01242317073D

 21 21  0     0  0            999 V2000
   -3.5086   -1.1148   -0.6041 N   0  0  0  0  0  0  0  0  0  0  0  0
   -2.9421    0.2689   -0.5298 C   0  0  0  0  0  0  0  0  0  0  0  0
   -2.0082    0.4805    0.6749 C   0  0  0  0  0  0  0  0  0  0  0  0
   -0.5401    0.3109    0.3903 C   0  0  0  0  0  0  0  0  0  0  0  0
    0.3943    1.0478    1.1171 C   0  0  0  0  0  0  0  0  0  0  0  0
    1.7471    0.8953    0.8987 C   0  0  0  0  0  0  0  0  0  0  0  0
    2.2072   -0.0090   -0.0534 C   0  0  0  0  0  0  0  0  0  0  0  0
    3.5051   -0.1593   -0.2644 F   0  0  0  0  0  0  0  0  0  0  0  0
    1.2836   -0.7567   -0.7768 C   0  0  0  0  0  0  0  0  0  0  0  0
   -0.0675   -0.5989   -0.5523 C   0  0  0  0  0  0  0  0  0  0  0  0
   -4.1200   -1.2974    0.1987 H   0  0  0  0  0  0  0  0  0  0  0  0
   -2.7721   -1.8282   -0.5964 H   0  0  0  0  0  0  0  0  0  0  0  0
   -4.0639   -1.2437   -1.4568 H   0  0  0  0  0  0  0  0  0  0  0  0
   -3.7827    0.9745   -0.4897 H   0  0  0  0  0  0  0  0  0  0  0  0
   -2.4107    0.5084   -1.4587 H   0  0  0  0  0  0  0  0  0  0  0  0
   -2.2909   -0.2048    1.4803 H   0  0  0  0  0  0  0  0  0  0  0  0
   -2.1606    1.4870    1.0828 H   0  0  0  0  0  0  0  0  0  0  0  0
    0.0515    1.7457    1.8632 H   0  0  0  0  0  0  0  0  0  0  0  0
    2.4699    1.4660    1.4578 H   0  0  0  0  0  0  0  0  0  0  0  0
    1.6490   -1.4579   -1.5085 H   0  0  0  0  0  0  0  0  0  0  0  0
   -0.7658   -1.1867   -1.1201 H   0  0  0  0  0  0  0  0  0  0  0  0
  1  2  1  0  0  0  0
  2  3  1  0  0  0  0
  3  4  1  0  0  0  0
  4  5  4  0  0  0  0
  5  6  4  0  0  0  0
  6  7  4  0  0  0  0
  7  8  1  0  0  0  0
  7  9  4  0  0  0  0
  4 10  4  0  0  0  0
  9 10  4  0  0  0  0
  1 11  1  0  0  0  0
  1 12  1  0  0  0  0
  1 13  1  0  0  0  0
  2 14  1  0  0  0  0
  2 15  1  0  0  0  0
  3 16  1  0  0  0  0
  3 17  1  0  0  0  0
  5 18  1  0  0  0  0
  6 19  1  0  0  0  0
  9 20  1  0  0  0  0
 10 21  1  0  0  0  0
M  CHG  1   1   1
M  END
