40
0.0
N           -0.10278  -1.36956   1.24443
C           -0.37149  -2.78588   0.87400
C           -1.15842  -2.91896  -0.42570
C           -0.40197  -2.40709  -1.67048
C           -0.93103  -1.08232  -2.21994
N           -0.76884   0.04633  -1.29722
C           -1.92649   0.88260  -0.85512
C           -1.23073   2.03193  -0.02057
C           -1.51234   1.97207   1.45454
C           -2.39815   1.14105   2.00037
C           -3.17548   0.22226   1.20387
C           -2.98408   0.09874  -0.10720
C            0.45801   0.70050  -1.07161
C            0.24689   1.85995  -0.31980
C            1.31586   2.64879   0.05700
C            2.59593   2.27599  -0.32044
C            2.80641   1.12854  -1.07081
C            1.74602   0.33241  -1.45336
Cl           2.99787  -1.27270   1.43530
H           -0.97921  -0.83356   1.32625
H            0.44526  -0.88930   0.51008
H            0.41119  -1.27761   2.13658
H           -0.91152  -3.27306   1.69599
H            0.57897  -3.32595   0.78698
H           -2.10797  -2.38082  -0.33039
H           -1.44749  -3.96982  -0.56795
H           -0.43568  -3.16381  -2.46649
H            0.66202  -2.30741  -1.42871
H           -1.99278  -1.17566  -2.46433
H           -0.42861  -0.81712  -3.15722
H           -2.37310   1.31001  -1.76382
H           -1.56118   3.01032  -0.40218
H           -0.93545   2.62499   2.09332
H           -2.54758   1.14560   3.06970
H           -3.93701  -0.36641   1.69270
H           -3.59468  -0.58548  -0.67260
H            1.14516   3.53812   0.63870
H            3.43751   2.88638  -0.02867
H            3.80942   0.85560  -1.35894
H            1.90225  -0.54860  -2.04688
