21
0.0
N           -2.57738  -0.75127   0.91678
C           -2.47565   0.50501   0.12097
C           -1.44841   0.41104  -1.00670
C           -0.04660   0.19816  -0.51700
C            0.55408  -1.06518  -0.57749
C            1.85281  -1.25923  -0.11498
C            2.56921  -0.19372   0.41842
C            1.98529   1.06602   0.48880
C            0.68685   1.25973   0.02562
H           -3.27140  -0.66825   1.67529
H           -1.67333  -0.99264   1.34844
H           -2.86304  -1.54460   0.32325
H           -2.21457   1.33345   0.79040
H           -3.46558   0.75127  -0.28500
H           -1.47366   1.31740  -1.62348
H           -1.72244  -0.40649  -1.68199
H            0.00733  -1.89178  -0.99997
H            2.30725  -2.23608  -0.17699
H            3.57816  -0.34312   0.77222
H            2.54184   1.89559   0.89728
H            0.24200   2.24008   0.07174
