 xtb: 6.5.1 (fef0646)
          01242314563D

 27 28  0     0  0            999 V2000
    2.7428    2.3752   -1.5593 N   0  0  0  0  0  0  0  0  0  0  0  0
    2.4709    1.2594   -0.6206 C   0  0  0  0  0  0  0  0  0  0  0  0
    3.0673   -0.0401   -1.1596 C   0  0  0  0  0  0  0  0  0  0  0  0
    4.5729    0.0173   -1.2111 C   0  0  0  0  0  0  0  0  0  0  0  0
    5.3149   -0.0779   -0.0611 C   0  0  0  0  0  0  0  0  0  0  0  0
    6.7222   -0.0160   -0.0891 C   0  0  0  0  0  0  0  0  0  0  0  0
    7.4993   -0.1205    1.0841 C   0  0  0  0  0  0  0  0  0  0  0  0
    8.8633   -0.0680    1.0229 C   0  0  0  0  0  0  0  0  0  0  0  0
    9.5139    0.0940   -0.2116 C   0  0  0  0  0  0  0  0  0  0  0  0
    8.7894    0.2007   -1.3655 C   0  0  0  0  0  0  0  0  0  0  0  0
    7.3802    0.1486   -1.3365 C   0  0  0  0  0  0  0  0  0  0  0  0
    6.5990    0.2446   -2.5066 C   0  0  0  0  0  0  0  0  0  0  0  0
    5.2348    0.1856   -2.4441 C   0  0  0  0  0  0  0  0  0  0  0  0
    2.3891    3.2646   -1.1885 H   0  0  0  0  0  0  0  0  0  0  0  0
    2.2949    2.1934   -2.4652 H   0  0  0  0  0  0  0  0  0  0  0  0
    3.7556    2.4566   -1.7114 H   0  0  0  0  0  0  0  0  0  0  0  0
    1.3944    1.1479   -0.4976 H   0  0  0  0  0  0  0  0  0  0  0  0
    2.9156    1.4920    0.3466 H   0  0  0  0  0  0  0  0  0  0  0  0
    2.6722   -0.2518   -2.1529 H   0  0  0  0  0  0  0  0  0  0  0  0
    2.7640   -0.8546   -0.5024 H   0  0  0  0  0  0  0  0  0  0  0  0
    4.8304   -0.2203    0.8941 H   0  0  0  0  0  0  0  0  0  0  0  0
    6.9996   -0.2471    2.0337 H   0  0  0  0  0  0  0  0  0  0  0  0
    9.4549   -0.1513    1.9230 H   0  0  0  0  0  0  0  0  0  0  0  0
   10.5933    0.1320   -0.2389 H   0  0  0  0  0  0  0  0  0  0  0  0
    9.2880    0.3235   -2.3166 H   0  0  0  0  0  0  0  0  0  0  0  0
    7.1028    0.3610   -3.4551 H   0  0  0  0  0  0  0  0  0  0  0  0
    4.6585    0.2403   -3.3556 H   0  0  0  0  0  0  0  0  0  0  0  0
  1  2  1  0  0  0  0
  2  3  1  0  0  0  0
  3  4  1  0  0  0  0
  4  5  2  0  0  0  0
  5  6  4  0  0  0  0
  6  7  4  0  0  0  0
  7  8  2  0  0  0  0
  8  9  4  0  0  0  0
  9 10  2  0  0  0  0
  6 11  4  0  0  0  0
 10 11  4  0  0  0  0
 11 12  4  0  0  0  0
  4 13  4  0  0  0  0
 12 13  2  0  0  0  0
  1 14  1  0  0  0  0
  1 15  1  0  0  0  0
  1 16  1  0  0  0  0
  2 17  1  0  0  0  0
  2 18  1  0  0  0  0
  3 19  1  0  0  0  0
  3 20  1  0  0  0  0
  5 21  1  0  0  0  0
  7 22  1  0  0  0  0
  8 23  1  0  0  0  0
  9 24  1  0  0  0  0
 10 25  1  0  0  0  0
 12 26  1  0  0  0  0
 13 27  1  0  0  0  0
M  CHG  1   1   1
M  END
