  15

 N         -0.0944102348       -1.4533302068        0.1206194379
 C          1.1560996849       -0.8616479642       -0.4296321371
 C          1.6712572069        0.2900449200        0.4254844268
 C          2.9278487040        0.9302302397       -0.1431763931
 Cl        -2.4598920534        1.0973456098        0.3090913750
 H         -0.4500295369       -2.2311160693       -0.4596068185
 H         -0.8419989469       -0.7355346442        0.1814385926
 H          0.0567130714       -1.8154743110        1.0753841108
 H          0.9793397658       -0.5114470386       -1.4540799002
 H          1.9279284548       -1.6359936725       -0.5157684907
 H          1.8565521066       -0.0723014270        1.4455043245
 H          0.8779223439        1.0415369186        0.5333933687
 H          3.7393060829        0.2036605612       -0.2259106819
 H          3.2870073335        1.7543493856        0.4784970185
 H          2.7499809151        1.3283800320       -1.1448571580
          15
        -18.94048661
 N         -0.5822148989        1.3503829870        0.5367180202
 C         -1.5354819717        0.9326342849       -0.5274999693
 C         -1.6281959657       -0.5844551633       -0.6661545044
 C         -2.1777729719       -1.2627475082        0.5780384881
 Cl         2.4553202005       -0.2501580605       -0.0294978358
 H         -0.4579487418        2.3759895378        0.5702854884
 H          0.3510758177        0.9235287656        0.3802183638
 H         -0.9023825012        1.0476079609        1.4696406391
 H         -1.2294787640        1.3808638851       -1.4819013693
 H         -2.5277699727        1.3477481514       -0.3136449775
 H         -0.6329606332       -0.9851518095       -0.9004639181
 H         -2.2512545349       -0.8408941833       -1.5345516592
 H         -1.5319078312       -1.0979142491        1.4429631543
 H         -2.2727001728       -2.3439925930        0.4475554769
 H         -3.1665506009       -0.8758227452        0.8349718087
          15
        -18.94056934
 N         -0.5602242782        1.3370664444        0.5352077687
 C         -1.4999660746        0.9313866754       -0.5454299151
 C         -1.6426459049       -0.5840817667       -0.6575035794
 C         -2.2713522453       -1.2141644159        0.5747062391
 Cl         2.4761350000       -0.2640726428       -0.0236305217
 H         -0.4172889911        2.3603224172        0.5652475596
 H          0.3680320878        0.8930230765        0.3977829771
 H         -0.9040765112        1.0457611715        1.4632854960
 H         -1.1535810840        1.3500301751       -1.4994639682
 H         -2.4824800977        1.3842422244       -0.3659880021
 H         -0.6537571966       -1.0256427753       -0.8392694973
 H         -2.2367789515       -0.8366232145       -1.5470569025
 H         -1.6558249312       -1.0588631371        1.4631703749
 H         -2.4070027138       -2.2928423732        0.4599675458
 H         -3.2527535208       -0.7814788222        0.7822884987
