  15

 N          0.9664960367        0.1570291145       -0.0319253871
 C          2.4430021938        0.1790924932       -0.0122667398
 C          2.9819468542        1.5247232450       -0.4873932893
 C          4.5055101705        1.5455096940       -0.4383121113
 Cl        -0.0837103144       -2.5932869239        0.7529589937
 H          0.6064846943       -0.7876726764        0.2582603876
 H          0.6120752506        0.3404257342       -0.9737550086
 H          0.5808421553        0.8492116214        0.6145070491
 H          2.8087956800       -0.6232299166       -0.6527199377
 H          2.7791917537       -0.0268055165        1.0036970661
 H          2.5954746064        2.3232327865        0.1469233268
 H          2.6575793709        1.7114340538       -1.5117883191
 H          4.8588405355        1.3899894001        0.5778936829
 H          4.8853385395        2.5008373052       -0.7897723378
 H          4.9201124732        0.7607795856       -1.0661273756
