29

N          0.91017        0.03950       -0.08491
C          2.39052        0.04674       -0.09994
C          2.90005       -0.61056        1.17077
C          4.42638       -0.62180        1.19347
C          4.95152       -1.28143        2.46390
C          6.47717       -1.28911        2.48118
C          7.00224       -1.94934        3.75258
C          8.52763       -1.96159        3.77525
C          9.04570       -2.61832        5.04165
H          0.52982        0.47823       -0.93319
H          0.53712        0.55710        0.72212
H          0.53707       -0.91831       -0.04025
H          2.70451        1.09228       -0.17450
H          2.70403       -0.49716       -0.99592
H          2.52315       -1.63822        1.23933
H          2.52310       -0.07144        2.04975
H          4.80363        0.40618        1.12892
H          4.80376       -1.16088        0.31576
H          4.57576       -2.31032        2.53016
H          4.57421       -0.74305        3.34289
H          6.85246       -0.26071        2.41656
H          6.85313       -1.82710        1.60242
H          6.62355       -2.97709        3.81635
H          6.62369       -1.41069        4.62970
H          8.91045       -0.93596        3.71584
H          8.91025       -2.50269        2.90264
H          8.70086       -2.08068        5.93090
H         10.14031       -2.62244        5.04880
H          8.70078       -3.65561        5.11335
