23

N          1.65603        1.04085        0.41414
C          2.58674        0.06431       -0.14519
C          3.12744       -0.84487        0.90177
C          4.42125       -0.93511        1.25382
C          4.91882       -1.81786        2.32321
C          6.22553       -2.31931        2.25086
C          6.74077       -3.11955        3.27655
C          5.95736       -3.41780        4.39062
C          4.66061       -2.91979        4.47721
C          4.14660       -2.12148        3.45375
Cl        -0.31874        0.38643        2.37395
H          1.19865        1.66951       -0.24333
H          2.03386        1.57363        1.20408
H          0.85484        0.56361        0.91878
H          3.37855        0.63884       -0.63458
H          2.04364       -0.50379       -0.90378
H          2.38656       -1.47490        1.39665
H          5.17712       -0.33240        0.75525
H          6.85835       -2.09937        1.39500
H          7.75409       -3.50601        3.21041
H          6.35801       -4.03035        5.19300
H          4.04687       -3.14314        5.34666
H          3.13611       -1.73228        3.56429
