 xtb: 6.5.1 (fef0646)
          01232318413D

 15 15  0     0  0            999 V2000
    1.0389   -0.0255    0.1908 N   0  0  0  0  0  0  0  0  0  0  0  0
    2.5317   -0.0157    0.0299 C   0  0  0  0  0  0  0  0  0  0  0  0
    3.2682   -1.1151    0.7989 C   0  0  0  0  0  0  0  0  0  0  0  0
    4.1944   -0.0419    1.4002 C   0  0  0  0  0  0  0  0  0  0  0  0
    3.2613    1.0518    0.8489 C   0  0  0  0  0  0  0  0  0  0  0  0
    0.6339   -0.8689   -0.2349 H   0  0  0  0  0  0  0  0  0  0  0  0
    0.6188    0.8044   -0.2468 H   0  0  0  0  0  0  0  0  0  0  0  0
    0.8092   -0.0201    1.1940 H   0  0  0  0  0  0  0  0  0  0  0  0
    2.7549    0.0091   -1.0367 H   0  0  0  0  0  0  0  0  0  0  0  0
    3.7482   -1.8770    0.1919 H   0  0  0  0  0  0  0  0  0  0  0  0
    2.6482   -1.6047    1.5470 H   0  0  0  0  0  0  0  0  0  0  0  0
    5.1784   -0.0282    0.9436 H   0  0  0  0  0  0  0  0  0  0  0  0
    4.3086   -0.0664    2.4788 H   0  0  0  0  0  0  0  0  0  0  0  0
    3.7362    1.8444    0.2782 H   0  0  0  0  0  0  0  0  0  0  0  0
    2.6383    1.5023    1.6190 H   0  0  0  0  0  0  0  0  0  0  0  0
  1  2  1  0  0  0  0
  2  3  1  0  0  0  0
  3  4  1  0  0  0  0
  2  5  1  0  0  0  0
  4  5  1  0  0  0  0
  1  6  1  0  0  0  0
  1  7  1  0  0  0  0
  1  8  1  0  0  0  0
  2  9  1  0  0  0  0
  3 10  1  0  0  0  0
  3 11  1  0  0  0  0
  4 12  1  0  0  0  0
  4 13  1  0  0  0  0
  5 14  1  0  0  0  0
  5 15  1  0  0  0  0
M  CHG  1   1   1
M  END
