28
 xtb: 6.5.1 (fef0646)
N           -2.66662484752715        0.61609413409745        1.43849434032373
C           -2.76512784458563        1.80183472363861        0.52973271288000
C           -1.99442700310648        1.58551739402712       -0.77411456509724
C           -0.54716837234318        1.26122335781349       -0.55282282448758
C           -0.14477399095554       -0.03519432776656       -0.38382388172910
C            1.20607872557149       -0.36243797946788       -0.13597457310184
C            1.63559934086114       -1.69763689163165        0.04133022238244
C            2.94750384572830       -1.97885700932341        0.27828739092898
C            3.89300304644006       -0.94620712929554        0.34980257621972
C            3.51234461287769        0.35207884431538        0.18606940971240
C            2.15909967065786        0.68003739382793       -0.05986460942743
C            1.72219630171820        2.01332681615856       -0.22806816923580
C            0.40912116683880        2.29070064650057       -0.46355082617703
Cl          -2.91910831712956       -2.11952311141730       -0.22808474026620
H           -3.27631417540579        0.81258151237533        2.29729066575381
H           -1.68043821862285        0.63846491252537        1.85612547745876
H           -2.85158816718742       -0.18754054505475        1.01471040421011
H           -2.36805655979976        2.76233343086423        1.00224359159142
H           -3.81056533024213        2.05019018553840        0.32003650588535
H           -2.08161192171358        2.43614834991408       -1.44797030249232
H           -2.47292715074803        0.74387411123930       -1.29695780705876
H           -0.87678973518033       -0.83085033704930       -0.42320356815210
H            0.91008352387074       -2.49293468617833       -0.01685640030583
H            3.26667838536910       -2.99949787347293        0.40796377111245
H            4.92657130603507       -1.18023192442735        0.53845327633454
H            4.23362066936889        1.14824544126887        0.24762061825223
H            2.43685466029237        2.81040912343725       -0.16086227489844
H            0.07664332404117        3.30785548983935       -0.57882972592864
