 xtb: 6.5.1 (fef0646)
          01242316593D

 28 28  0     0  0            999 V2000
   -2.6311    0.7492    1.5116 N   0  0  0  0  0  0  0  0  0  0  0  0
   -2.7484    1.8688    0.5338 C   0  0  0  0  0  0  0  0  0  0  0  0
   -2.0026    1.5767   -0.7667 C   0  0  0  0  0  0  0  0  0  0  0  0
   -0.5542    1.2550   -0.5475 C   0  0  0  0  0  0  0  0  0  0  0  0
   -0.1505   -0.0414   -0.3798 C   0  0  0  0  0  0  0  0  0  0  0  0
    1.2025   -0.3653   -0.1348 C   0  0  0  0  0  0  0  0  0  0  0  0
    1.6357   -1.6997    0.0388 C   0  0  0  0  0  0  0  0  0  0  0  0
    2.9485   -1.9775    0.2756 C   0  0  0  0  0  0  0  0  0  0  0  0
    3.8910   -0.9425    0.3515 C   0  0  0  0  0  0  0  0  0  0  0  0
    3.5068    0.3551    0.1906 C   0  0  0  0  0  0  0  0  0  0  0  0
    2.1529    0.6797   -0.0562 C   0  0  0  0  0  0  0  0  0  0  0  0
    1.7136    2.0126   -0.2231 C   0  0  0  0  0  0  0  0  0  0  0  0
    0.4001    2.2871   -0.4584 C   0  0  0  0  0  0  0  0  0  0  0  0
   -2.9237   -2.2533   -0.3076 Cl  0  0  0  0  0  0  0  0  0  0  0  0
   -3.2339    0.8808    2.3362 H   0  0  0  0  0  0  0  0  0  0  0  0
   -1.6604    0.6540    1.8403 H   0  0  0  0  0  0  0  0  0  0  0  0
   -2.8835   -0.1481    1.0636 H   0  0  0  0  0  0  0  0  0  0  0  0
   -2.3579    2.7875    0.9871 H   0  0  0  0  0  0  0  0  0  0  0  0
   -3.8068    2.0684    0.3259 H   0  0  0  0  0  0  0  0  0  0  0  0
   -2.0851    2.4240   -1.4576 H   0  0  0  0  0  0  0  0  0  0  0  0
   -2.4785    0.7348   -1.2811 H   0  0  0  0  0  0  0  0  0  0  0  0
   -0.8783   -0.8331   -0.4225 H   0  0  0  0  0  0  0  0  0  0  0  0
    0.9107   -2.4940   -0.0188 H   0  0  0  0  0  0  0  0  0  0  0  0
    3.2679   -2.9989    0.4062 H   0  0  0  0  0  0  0  0  0  0  0  0
    4.9261   -1.1783    0.5393 H   0  0  0  0  0  0  0  0  0  0  0  0
    4.2312    1.1498    0.2502 H   0  0  0  0  0  0  0  0  0  0  0  0
    2.4338    2.8107   -0.1588 H   0  0  0  0  0  0  0  0  0  0  0  0
    0.0732    3.3066   -0.5772 H   0  0  0  0  0  0  0  0  0  0  0  0
  1  2  1  0  0  0  0
  2  3  1  0  0  0  0
  3  4  1  0  0  0  0
  4  5  2  0  0  0  0
  5  6  4  0  0  0  0
  6  7  4  0  0  0  0
  7  8  2  0  0  0  0
  8  9  4  0  0  0  0
  9 10  2  0  0  0  0
  6 11  4  0  0  0  0
 10 11  4  0  0  0  0
 11 12  4  0  0  0  0
  4 13  4  0  0  0  0
 12 13  2  0  0  0  0
  1 15  1  0  0  0  0
  1 16  1  0  0  0  0
  1 17  1  0  0  0  0
  2 18  1  0  0  0  0
  2 19  1  0  0  0  0
  3 20  1  0  0  0  0
  3 21  1  0  0  0  0
  5 22  1  0  0  0  0
  7 23  1  0  0  0  0
  8 24  1  0  0  0  0
  9 25  1  0  0  0  0
 10 26  1  0  0  0  0
 12 27  1  0  0  0  0
 13 28  1  0  0  0  0
M  END
