40
 xtb: 6.5.1 (fef0646)
N           -7.19183649733138       -0.22013263721543        1.79888264069462
C           -7.45703412341889        0.84186879113011        0.78987813928452
C           -6.83347620646206        0.51400595810587       -0.56408664265208
C           -5.37992302595222        0.20953717919634       -0.46488381979713
C           -4.84889245882314       -1.03293741637336       -0.32222541394097
C           -3.43198435496340       -1.04270230136464       -0.23417739146862
C           -2.86802969662465        0.19994215961779       -0.30972644769200
C           -1.45575139720096        0.48354568135582       -0.25723629826649
C           -0.88920253497647        1.72642965340184       -0.35821245001804
C            0.52302209282464        1.71932224599593       -0.28673595675758
C            1.06351297710633        0.46965961948983       -0.12917637426447
C            2.46875967927682        0.17098553170352       -0.03836786330847
C            3.00925419679259       -1.07919415085882        0.11149933759469
C            4.42221375426953       -1.08917798098123        0.16020352070849
C            4.98944205237196        0.15205940464640        0.05048649679571
C            6.40397917434607        0.43118174201630        0.06857481338761
C            6.96997743383731        1.67494034553762        0.00297278567524
C            8.39080833200609        1.65778871806102        0.03689131240389
C            8.90922524714655        0.40947330157002        0.12615643466750
S            7.65754648274846       -0.78057706146962        0.15007069429218
S            3.74284745601132        1.35551484949493       -0.11610780488989
S           -0.21135847735610       -0.71415828320232       -0.04327798446406
S           -4.11811889562673        1.40118801593953       -0.48791921072240
Cl          -7.51840885028777       -3.39185822602734        0.12362337843028
H           -7.45687314018697       -1.17665726462407        1.39274846929008
H           -7.71924135364765       -0.11540918275997        2.66297088679141
H           -6.19360134758908       -0.29804063469834        2.01270335650151
H           -7.06313805370278        1.77204656342976        1.17230216091886
H           -8.54189620195363        0.97664978707048        0.68052226529936
H           -6.97680272699938        1.35017578730826       -1.26296706276559
H           -7.34156959010016       -0.34312607412413       -1.02433963940908
H           -5.45606451172430       -1.92425540940723       -0.27541986594926
H           -2.84588554971063       -1.94319440625536       -0.12531558300223
H           -1.47658484119084        2.62720541496104       -0.44182502685489
H            1.12654352584922        2.61361062433232       -0.30994561201890
H            2.40495950379546       -1.97129008444368        0.17081349651444
H            5.00983245681642       -1.98952332306585        0.26013556894311
H            6.38621967569031        2.57409009778839       -0.12824333085386
H            8.99530507144692        2.54953747595584       -0.05960739716816
H            9.95633365692881        0.17256096873625        0.17306151905421
