 xtb: 6.5.1 (fef0646)
          01232313463D

 28 27  0     0  0            999 V2000
    1.1882   -0.4303   -0.1167 N   0  0  0  0  0  0  0  0  0  0  0  0
    2.6087   -0.2852    0.2153 C   0  0  0  0  0  0  0  0  0  0  0  0
    2.8798    0.8568    1.2066 C   0  0  0  0  0  0  0  0  0  0  0  0
    1.8992    0.8488    2.3810 C   0  0  0  0  0  0  0  0  0  0  0  0
    2.2385    1.9560    3.3736 C   0  0  0  0  0  0  0  0  0  0  0  0
    2.1931    3.3154    2.6795 C   0  0  0  0  0  0  0  0  0  0  0  0
    2.5553    4.4338    3.6416 C   0  0  0  0  0  0  0  0  0  0  0  0
    2.1980    5.6667    3.2316 O   0  0  0  0  0  0  0  0  0  0  0  0
    3.1378    4.2789    4.6750 O   0  0  0  0  0  0  0  0  0  0  0  0
    3.1903    3.3304    1.5118 C   0  0  0  0  0  0  0  0  0  0  0  0
    2.8540    2.2224    0.5184 C   0  0  0  0  0  0  0  0  0  0  0  0
   -0.5018    1.8451   -0.8005 Cl  0  0  0  0  0  0  0  0  0  0  0  0
    1.0733   -1.0654   -0.8994 H   0  0  0  0  0  0  0  0  0  0  0  0
    0.3780    0.8063   -0.4852 H   0  0  0  0  0  0  0  0  0  0  0  0
    0.6802   -0.8088    0.6761 H   0  0  0  0  0  0  0  0  0  0  0  0
    3.1454   -0.0784   -0.7131 H   0  0  0  0  0  0  0  0  0  0  0  0
    3.0056   -1.2205    0.6331 H   0  0  0  0  0  0  0  0  0  0  0  0
    3.8897    0.6975    1.6017 H   0  0  0  0  0  0  0  0  0  0  0  0
    1.9321   -0.1178    2.8886 H   0  0  0  0  0  0  0  0  0  0  0  0
    0.8872    1.0144    2.0083 H   0  0  0  0  0  0  0  0  0  0  0  0
    3.2348    1.8051    3.7916 H   0  0  0  0  0  0  0  0  0  0  0  0
    1.5292    1.9448    4.2027 H   0  0  0  0  0  0  0  0  0  0  0  0
    1.1832    3.4871    2.2871 H   0  0  0  0  0  0  0  0  0  0  0  0
    1.7293    5.6519    2.3865 H   0  0  0  0  0  0  0  0  0  0  0  0
    4.1972    3.1810    1.9091 H   0  0  0  0  0  0  0  0  0  0  0  0
    3.1732    4.2968    1.0018 H   0  0  0  0  0  0  0  0  0  0  0  0
    3.5815    2.2373   -0.2952 H   0  0  0  0  0  0  0  0  0  0  0  0
    1.8668    2.3993    0.0940 H   0  0  0  0  0  0  0  0  0  0  0  0
  1  2  1  0  0  0  0
  2  3  1  0  0  0  0
  3  4  1  0  0  0  0
  4  5  1  0  0  0  0
  5  6  1  0  0  0  0
  6  7  1  0  0  0  0
  7  8  1  0  0  0  0
  7  9  2  0  0  0  0
  6 10  1  0  0  0  0
  3 11  1  0  0  0  0
 10 11  1  0  0  0  0
  1 13  1  0  0  0  0
 12 14  1  0  0  0  0
  1 15  1  0  0  0  0
  2 16  1  0  0  0  0
  2 17  1  0  0  0  0
  3 18  1  0  0  0  0
  4 19  1  0  0  0  0
  4 20  1  0  0  0  0
  5 21  1  0  0  0  0
  5 22  1  0  0  0  0
  6 23  1  0  0  0  0
  8 24  1  0  0  0  0
 10 25  1  0  0  0  0
 10 26  1  0  0  0  0
 11 27  1  0  0  0  0
 11 28  1  0  0  0  0
M  END
