27
 xtb: 6.5.1 (fef0646)
N            3.52075553149492        0.10598735077909        1.20290882973812
C            2.80778636502677        0.57575459070558       -0.02666659174620
C            3.53190539924209        0.13400002551251       -1.29463178361293
C            1.36902801864795        0.11489656014926       -0.01674769907583
C            1.07261048730430       -1.24769364243137       -0.02442485784951
C           -0.23093515566062       -1.69837924046973       -0.02035760639367
C            0.32794578600069        1.02986086061668       -0.00552483105096
C           -1.01492626332486        0.60989568761424       -0.00044388166827
C           -1.30254417157186       -0.78928426952735       -0.00866656205642
C           -2.64494243546032       -1.20908318842536       -0.00651175189138
C           -3.66894412590415       -0.28504179408244        0.00468945203325
C           -3.39087189723190        1.07425287151417        0.01698038422590
C           -2.08576478553657        1.52180597564805        0.01263405790829
H            3.46533962832720       -0.92161155300472        1.28530514322419
H            3.09910344798189        0.52367937192068        2.05391664271182
H            4.52665275918080        0.37818761050167        1.17077669024480
H            2.79454449411885        1.67436138555584        0.00053465842675
H            3.60645729112907       -0.94154370409830       -1.35366023168452
H            4.55170124202377        0.53844300281492       -1.32101326311623
H            3.01616146306494        0.48895376272289       -2.18809370811044
H            1.87273389022970       -1.97153579535101       -0.03546686965306
H           -0.44715122123472       -2.75782380550357       -0.02009880849806
H            0.55003350650787        2.07523308645981       -0.00831712539617
H           -2.87398909508092       -2.25831311112947       -0.00151071452406
H           -4.69558560173832       -0.61127214922369        0.01653772648386
H           -4.19557176579839        1.79368357413215        0.02290249907016
H           -1.86861913676371        2.57850739438332        0.00849525935304
