  27

 N         -4.1151648908        0.6999215741       -0.2759861306
 C         -3.2381762665       -0.4485457528        0.0958335417
 C         -1.7484816953       -0.2059017619       -0.2039648015
 C         -0.9189392034       -1.5131776306       -0.1402179991
 C          0.5557311581       -1.2685693242       -0.5035729992
 C          1.2069108596       -0.1770596251        0.3735952100
 C          2.5784259040        0.1428469812       -0.1804868823
 O          3.6834520258       -0.1173470608        0.5563179271
 O          2.5884845416        0.6258392568       -1.2909837682
 C          0.3577993143        1.1139780149        0.3777271712
 C         -1.1158005749        0.8511573083        0.7326831485
 H         -5.1094597556        0.4879987672       -0.1009618549
 H         -4.0239975101        0.9298780967       -1.2765937164
 H         -3.8861911657        1.5488036376        0.2609950214
 H         -3.5791562529       -1.3382670917       -0.4466999990
 H         -3.3644999440       -0.6807745958        1.1590140365
 H         -1.6748978974        0.1794630715       -1.2326935688
 H         -1.3586015655       -2.2737324455       -0.7976969503
 H         -0.9844289986       -1.9269139441        0.8719634159
 H          0.6404110332       -0.9583653711       -1.5525317615
 H          1.1365998148       -2.1978407657       -0.4339335820
 H          1.3062974563       -0.5482612337        1.4027123798
 H          3.4986917242       -0.5112465179        1.4332880664
 H          0.4316721629        1.5708553412       -0.6172842665
 H          0.8023514564        1.8495958789        1.0611303682
 H         -1.6908449501        1.7840474548        0.7020676044
 H         -1.1860135769        0.4970751289        1.7668727750
          27
        -35.93987583
 N         -4.1039471819        0.6512787221       -0.3357769917
 C         -3.2193881493       -0.4319508526        0.1841545251
 C         -1.7334971314       -0.2370095355       -0.1631975121
 C         -0.8947200607       -1.5003582157        0.1585826628
 C          0.5817283812       -1.3202893921       -0.2329983585
 C          1.2106655148       -0.0754398848        0.4264161542
 C          2.6060304154        0.1294498644       -0.1082999648
 O          3.6279841192        0.0623423204        0.7640394781
 O          2.7413985394        0.3423292226       -1.2894458392
 C          0.3640646492        1.1867395319        0.1571222527
 C         -1.1126903212        0.9925640989        0.5432480925
 H         -4.0146952469        0.7477183720       -1.3582150519
 H         -3.8807330991        1.5647874727        0.0853101104
 H         -5.0968048613        0.4589054014       -0.1324084122
 H         -3.5647812874       -1.3915018887       -0.2184530784
 H         -3.3327898639       -0.5093779894        1.2708635697
 H         -1.6649291385       -0.0627382816       -1.2480870299
 H         -1.3239420384       -2.3781457030       -0.3404415952
 H         -0.9662624471       -1.7102438960        1.2313008325
 H          0.6758547027       -1.2165725648       -1.3208068004
 H          1.1691285388       -2.2123239340        0.0219712974
 H          1.2893632842       -0.2376321725        1.5114953042
 H          4.4608739774        0.2105139454        0.2842481978
 H          0.4482595415        1.4334327619       -0.9082371004
 H          0.8003327210        2.0449805215        0.6850834438
 H         -1.6894446298        1.8964580240        0.3156277687
 H         -1.1938310055        0.8583013966        1.6272120750
