  27

 N         -4.1205851860        0.6636712668       -0.2282423080
 C         -3.2101984032       -0.4689306026        0.1249544633
 C         -1.7328443178       -0.2079546988       -0.2148614113
 C         -0.8908200869       -1.5069287997       -0.1470955215
 C          0.5795597401       -1.2523873025       -0.5222701588
 C          1.2185597481       -0.1609712421        0.3650770106
 C          2.6320351118        0.1247564936       -0.0994500699
 O          3.6668605079       -0.0852891474        0.7469676534
 O          2.7599578943        0.5350095619       -1.2310874456
 C          0.3753935532        1.1313493207        0.3206350175
 C         -1.0956952777        0.8719246790        0.6924849969
 H         -5.0986281446        0.4268682821       -0.0286628695
 H         -4.0488248609        0.8910737295       -1.2258024037
 H         -3.8917733875        1.5082366410        0.3066998854
 H         -3.5502176533       -1.3669161177       -0.4027154059
 H         -3.3038118470       -0.6963669292        1.1917915242
 H         -1.6874251968        0.1611080827       -1.2504717602
 H         -1.3278582049       -2.2766009924       -0.7947001741
 H         -0.9454195234       -1.9119742048        0.8689267406
 H          0.6505154135       -0.9309327053       -1.5676020695
 H          1.1669755011       -2.1768736290       -0.4622619144
 H          1.2416867758       -0.5248856065        1.4005669425
 H          3.4091240441       -0.4191491975        1.6203340500
 H          0.4388241631        1.5486218500       -0.6907673891
 H          0.8187807989        1.8911569577        0.9761898803
 H         -1.6719421083        1.8023098400        0.6437947588
 H         -1.1576307470        0.5414428374        1.7347202033
          27
        -36.06374085
 N         -4.1070623741       -0.6545749514       -0.3314066281
 C         -3.2097177212        0.4350599893        0.1605030093
 C         -1.7263541858        0.2204538174       -0.1838750455
 C         -1.1055398577       -0.9693482425        0.5872530480
 C          0.3751066523       -1.1758079364        0.2208795327
 C          1.2072320913        0.1037698892        0.4519478739
 C          2.6391616822       -0.1093096911        0.0194277252
 O          2.8185118643       -0.4723512714       -1.2635863273
 O          3.5396229992        0.0524423085        0.8088394324
 C          0.5890785425        1.2995595052       -0.3007439121
 C         -0.8909503914        1.5011225576        0.0690096069
 H         -4.0144891186       -0.7711889532       -1.3462053203
 H         -5.0901772886       -0.4444555811       -0.1263492127
 H         -3.8839997616       -1.5521296753        0.1120939244
 H         -3.3198458553        0.5401471100        1.2445412742
 H         -3.5469765610        1.3856428267       -0.2672010575
 H         -1.6610287004       -0.0103716083       -1.2577562873
 H         -1.6756751364       -1.8860304341        0.4006955157
 H         -1.1946236583       -0.7812165724        1.6623067466
 H          0.4654843039       -1.4607911068       -0.8334264582
 H          0.8084767406       -2.0096848194        0.7868670134
 H          1.2196763435        0.3297360943        1.5282374526
 H          3.7553645251       -0.5818698749       -1.4494165933
 H          0.6864455772        1.1196935690       -1.3772590205
 H          1.1723181507        2.2074389461       -0.1020201018
 H         -1.3160870682        2.3464464336       -0.4852432449
 H         -0.9710022991        1.7733833915        1.1266649928
