  27

 N          2.9950355251        0.9663168684       -0.8846594920
 C          2.3471210696        0.0184080389        0.0515824220
 C          2.8088670836        0.2404071529        1.4937341507
 C          2.3235682335       -0.9223246723        2.3635846606
 C          2.7802425464       -0.7487229841        3.8088140050
 C          2.2437066885        0.5734700765        4.3838139636
 C          2.7735115956        0.7108955985        5.7933028808
 O          1.9767744449        0.3077683710        6.7836583157
 O          3.8820876339        1.1265430543        6.0470580013
 C          2.7221339549        1.7395496301        3.5151097015
 C          2.2794313727        1.5589504629        2.0653150313
 H          2.7084512317        0.7709424625       -1.8504822938
 H          4.0162565440        0.8848542001       -0.8205809425
 H          2.7318901885        1.9304133807       -0.6534300646
 H          2.5954682483       -0.9986875833       -0.2498022726
 H          1.2660211008        0.1416143331       -0.0073841227
 H          3.9020851553        0.2531311435        1.5335807781
 H          2.7168974163       -1.8661835976        1.9851274974
 H          1.2340874686       -0.9745468185        2.3349952918
 H          3.8709482347       -0.7309933520        3.8618997934
 H          2.4357698012       -1.5895689836        4.4129179284
 H          1.1502513030        0.5459263167        4.3949335236
 H          1.0963802365        0.0081100986        6.4919643539
 H          3.8105044933        1.7931140914        3.5832010507
 H          2.3261850660        2.6750312374        3.9154885971
 H          2.6498601145        2.4149674109        1.5020734842
 H          1.1886432487        1.5642440628        2.0262337570
