18
 xtb: 6.5.1 (fef0646)
N            0.11999787896853       -0.26719347783024       -0.62359079055942
C           -0.59560666873009       -0.31382662815526        0.68063082645968
C           -2.10595429115347       -0.27588443047079        0.48340446801217
C           -2.59428717883979        1.03859414280313       -0.12482374975948
C           -4.10381885982260        1.07300317614940       -0.30377858585818
Cl           3.86248381022252       -0.51044499463560        0.02319739128109
H            1.21184382537887       -0.33428842934506       -0.44473211317734
H            0.01801442123575        0.61209527332194       -1.10726902116605
H           -0.08217424961416       -1.04743271604175       -1.21909491764505
H           -0.25748594703046        0.52905638417961        1.32180258776588
H           -0.27385755903656       -1.21560285563750        1.24093828375008
H           -2.59083941035329       -0.46312486594300        1.41966973642331
H           -2.36140550318391       -1.11302256351324       -0.18138416851959
H           -2.07515236671034        1.20704567021809       -1.09618220264605
H           -2.24109638812686        1.86860633798186        0.50666600084304
H           -4.42200115662358        2.00875136040423       -0.73302391330035
H           -4.58755094454681        0.93199201523826        0.65190208990205
H           -4.41385568609982        0.26163349712007       -0.96317679703768
