17
 xtb: 6.5.1 (fef0646)
N           -3.53560958984220        1.05643585857587        0.04102042162772
C           -3.09873704319538       -0.20804448046454       -0.62803207448665
C           -2.24238703420287       -1.11294140913899        0.25904259115486
C           -0.86898002507010       -0.54010907522756        0.64358189264986
C            0.06732037261806       -0.33032664712069       -0.53726560415359
Br           1.86366386380000        0.14043655162856        0.04597243157558
H           -3.98081155398073        0.85550981973340        0.94209816572302
H           -4.17118378085263        1.59784316513096       -0.53260461761245
H           -2.71368459486183        1.68086519793963        0.25152228483218
H           -2.53685728040713        0.05832015561015       -1.54330762262908
H           -3.98603129129725       -0.72294989749558       -0.96673749186496
H           -2.11342633702133       -2.08338210114649       -0.24263124009309
H           -2.81997022306067       -1.33969861358229        1.16582244388557
H           -0.39794489012678       -1.23106600937522        1.37896263811411
H           -0.98114573664151        0.39404883939771        1.16535483640328
H           -0.27896249365943        0.35367112616496       -1.24440913780679
H            0.20810122246751       -1.33019133120981       -1.08170662545115
