17
 xtb: 6.5.1 (fef0646)
N           -3.56743385325010        1.03235165873347        0.03314367237573
C           -3.10572509467922       -0.22668572415724       -0.62616389935168
C           -2.23468703242506       -1.10763641708601        0.27166827086992
C           -0.87185668178221       -0.50067755999935        0.64542584603897
C            0.04914559871321       -0.25723362870054       -0.54359401155334
Br           1.88865489140684        0.10627978331707        0.04542340390853
H           -4.02762182473592        0.84901863708442        0.91625133959950
H           -4.14560620455252        1.60861430312474       -0.55229628757516
H           -2.72155481283736        1.65582030648153        0.28869098657301
H           -2.53774090556677        0.05386236284940       -1.54179505950169
H           -3.98492110698041       -0.73300791533199       -0.96728515430869
H           -2.10565739439250       -2.08283761334917       -0.23561200602897
H           -2.81573072986169       -1.33821321545905        1.17067519429342
H           -0.39191104330592       -1.21770966250369        1.37694458701194
H           -0.98707515529677        0.40378224864230        1.16836707403190
H           -0.28055933015649        0.38811915034263       -1.23455362687497
H            0.19279674698702       -1.30297473289121       -1.09732446667019
