49
1.086
N            8.46080   0.17042   1.87528
C            8.73019  -0.82016   0.79507
C            8.08872  -0.40902  -0.52852
C            6.60080  -0.44590  -0.48000
C            5.82060  -1.49211  -0.86945
C            4.43283  -1.26312  -0.71362
C            4.12979  -0.03063  -0.19613
C            2.81199   0.46953   0.05793
C            2.49451   1.70596   0.56852
C            1.11043   1.95822   0.71287
C            0.62943   3.25229   1.27086
C            0.31425   0.89660   0.28894
C           -1.12165   0.74883   0.23025
C           -2.02717   1.77491   0.52405
C           -3.39681   1.60573   0.44970
C           -4.00144   0.39895   0.08629
C           -5.45038   0.31317   0.01182
C           -6.28449  -0.78207   0.14888
C           -5.85040  -2.16826   0.47333
C           -7.65957  -0.45569  -0.03025
C           -7.89300   0.85619  -0.27007
S           -6.42056   1.73154  -0.27750
C           -3.12847  -0.67650  -0.25646
N           -3.46783  -1.87946  -0.71667
S           -2.10484  -2.73014  -1.00499
N           -1.02255  -1.58809  -0.56633
C           -1.68740  -0.49806  -0.18401
S            1.34758  -0.39863  -0.23169
S            5.60375   0.84308   0.10621
H            8.77688  -0.15988   2.80070
H            7.45044   0.36484   1.92769
H            8.93243   1.06732   1.68166
H            8.34563  -1.80197   1.09548
H            9.81442  -0.94444   0.68030
H            8.43682  -1.05440  -1.34350
H            8.40974   0.60435  -0.79221
H            6.22747  -2.41054  -1.26574
H            3.67567  -1.98540  -0.98006
H            3.24998   2.42846   0.83533
H            0.12370   3.84529   0.50817
H            1.46425   3.84806   1.64165
H           -0.04677   3.09139   2.11109
H           -1.65345   2.74345   0.79839
H           -4.04064   2.43778   0.68222
H           -4.98001  -2.15918   1.12969
H           -5.58033  -2.70780  -0.43546
H           -6.64344  -2.72315   0.97585
H           -8.44382  -1.19633   0.02771
H           -8.85710   1.30289  -0.43047
