 xtb: 6.5.1 (fef0646)
          01242317093D

 25 24  0     0  0            999 V2000
   -2.8542    1.6868   -0.8144 N   0  0  0  0  0  0  0  0  0  0  0  0
   -1.7100    2.5153   -0.3342 C   0  0  0  0  0  0  0  0  0  0  0  0
   -0.3588    1.8428   -0.5569 C   0  0  0  0  0  0  0  0  0  0  0  0
   -0.1651    0.5802    0.2835 C   0  0  0  0  0  0  0  0  0  0  0  0
    1.1763   -0.0601    0.0735 C   0  0  0  0  0  0  0  0  0  0  0  0
    2.2756    0.3394    0.8200 C   0  0  0  0  0  0  0  0  0  0  0  0
    3.5158   -0.2290    0.6070 C   0  0  0  0  0  0  0  0  0  0  0  0
    3.6735   -1.2011   -0.3605 C   0  0  0  0  0  0  0  0  0  0  0  0
    2.5898   -1.6008   -1.1162 C   0  0  0  0  0  0  0  0  0  0  0  0
    1.3502   -1.0313   -0.9021 C   0  0  0  0  0  0  0  0  0  0  0  0
   -3.0655   -1.3792    0.9562 Cl  0  0  0  0  0  0  0  0  0  0  0  0
   -3.7562    2.1698   -0.6969 H   0  0  0  0  0  0  0  0  0  0  0  0
   -2.9118    0.7949   -0.2991 H   0  0  0  0  0  0  0  0  0  0  0  0
   -2.7469    1.4571   -1.8147 H   0  0  0  0  0  0  0  0  0  0  0  0
   -1.8392    2.7378    0.7316 H   0  0  0  0  0  0  0  0  0  0  0  0
   -1.7339    3.4881   -0.8413 H   0  0  0  0  0  0  0  0  0  0  0  0
    0.4553    2.5451   -0.3380 H   0  0  0  0  0  0  0  0  0  0  0  0
   -0.2436    1.5929   -1.6176 H   0  0  0  0  0  0  0  0  0  0  0  0
   -0.9486   -0.1487    0.0527 H   0  0  0  0  0  0  0  0  0  0  0  0
   -0.2939    0.8159    1.3458 H   0  0  0  0  0  0  0  0  0  0  0  0
    2.1515    1.1027    1.5701 H   0  0  0  0  0  0  0  0  0  0  0  0
    4.3619    0.0881    1.1955 H   0  0  0  0  0  0  0  0  0  0  0  0
    4.6418   -1.6453   -0.5272 H   0  0  0  0  0  0  0  0  0  0  0  0
    2.7113   -2.3571   -1.8751 H   0  0  0  0  0  0  0  0  0  0  0  0
    0.5043   -1.3375   -1.4947 H   0  0  0  0  0  0  0  0  0  0  0  0
  1  2  1  0  0  0  0
  2  3  1  0  0  0  0
  3  4  1  0  0  0  0
  4  5  1  0  0  0  0
  5  6  4  0  0  0  0
  6  7  4  0  0  0  0
  7  8  4  0  0  0  0
  8  9  4  0  0  0  0
  5 10  4  0  0  0  0
  9 10  4  0  0  0  0
  1 12  1  0  0  0  0
  1 13  1  0  0  0  0
  1 14  1  0  0  0  0
  2 15  1  0  0  0  0
  2 16  1  0  0  0  0
  3 17  1  0  0  0  0
  3 18  1  0  0  0  0
  4 19  1  0  0  0  0
  4 20  1  0  0  0  0
  6 21  1  0  0  0  0
  7 22  1  0  0  0  0
  8 23  1  0  0  0  0
  9 24  1  0  0  0  0
 10 25  1  0  0  0  0
M  END
