15
0.0
N           -2.13462   0.35316  -0.58042
C           -1.40907  -0.74227   0.12925
C           -0.27843  -0.22810   1.00314
S            0.99228   0.63040   0.07847
C            1.88813  -0.74383  -0.58117
H           -1.49170   0.88083  -1.17803
H           -2.54704   1.00677   0.09106
H           -2.88632  -0.01743  -1.16974
H           -1.01783  -1.44997  -0.61093
H           -2.12774  -1.31054   0.73442
H            0.19100  -1.03503   1.57117
H           -0.66813   0.48056   1.73672
H            2.73255  -0.37557  -1.15928
H            1.25802  -1.34011  -1.23579
H            2.26775  -1.37162   0.22162
