15
 xtb: 6.5.1 (fef0646)
N           -2.14774209212803        0.38189129473185       -0.55940350875763
C           -1.42536087771313       -0.74134661652198        0.11457070541624
C           -0.27507407697348       -0.26209748559024        0.98329324429588
S            0.96752013454395        0.62232737391721        0.04840316491145
C            1.94486927422155       -0.73193140590048       -0.53486617108697
H           -1.51539434107379        0.84660564498998       -1.23004470216118
H           -2.48184343969154        1.05054835816280        0.10398081377948
H           -2.94113154452241        0.00186278129976       -1.10608135655015
H           -1.03096184019798       -1.44825703209485       -0.62093160190020
H           -2.13247231229691       -1.30876466822755        0.73169849216843
H            0.19512774499060       -1.05081272670688        1.55415770023584
H           -0.66364619640575        0.46242801260919        1.74098928813749
H            2.73407569608270       -0.36735673484941       -1.16448953501487
H            1.27760475144176       -1.36334221561512       -1.20118878778329
H            2.30652571395946       -1.34346692208503        0.24374257689030
