 xtb: 6.5.1 (fef0646)
          01242310043D

 27 27  0     0  0            999 V2000
   -4.0750    0.3917   -0.8002 N   0  0  0  0  0  0  0  0  0  0  0  0
   -3.2347   -0.0815    0.3385 C   0  0  0  0  0  0  0  0  0  0  0  0
   -1.7431   -0.2211   -0.0111 C   0  0  0  0  0  0  0  0  0  0  0  0
   -0.9597   -0.9794    1.0908 C   0  0  0  0  0  0  0  0  0  0  0  0
    0.5215   -1.1585    0.7171 C   0  0  0  0  0  0  0  0  0  0  0  0
    1.2073    0.1865    0.4002 C   0  0  0  0  0  0  0  0  0  0  0  0
    2.6097   -0.0650   -0.0950 C   0  0  0  0  0  0  0  0  0  0  0  0
    3.6305    0.3995    0.6482 O   0  0  0  0  0  0  0  0  0  0  0  0
    2.7514   -0.6722   -1.1297 O   0  0  0  0  0  0  0  0  0  0  0  0
    0.4170    0.9791   -0.6626 C   0  0  0  0  0  0  0  0  0  0  0  0
   -1.0655    1.1437   -0.2847 C   0  0  0  0  0  0  0  0  0  0  0  0
   -3.8074    1.3377   -1.1088 H   0  0  0  0  0  0  0  0  0  0  0  0
   -5.0734    0.4283   -0.5432 H   0  0  0  0  0  0  0  0  0  0  0  0
   -3.9913   -0.2373   -1.6125 H   0  0  0  0  0  0  0  0  0  0  0  0
   -3.6207   -1.0486    0.6816 H   0  0  0  0  0  0  0  0  0  0  0  0
   -3.3480    0.6008    1.1879 H   0  0  0  0  0  0  0  0  0  0  0  0
   -1.6715   -0.8155   -0.9350 H   0  0  0  0  0  0  0  0  0  0  0  0
   -1.4293   -1.9506    1.2907 H   0  0  0  0  0  0  0  0  0  0  0  0
   -1.0357   -0.4197    2.0294 H   0  0  0  0  0  0  0  0  0  0  0  0
    0.6151   -1.8069   -0.1625 H   0  0  0  0  0  0  0  0  0  0  0  0
    1.0701   -1.6763    1.5150 H   0  0  0  0  0  0  0  0  0  0  0  0
    1.2809    0.7841    1.3208 H   0  0  0  0  0  0  0  0  0  0  0  0
    4.4678    0.1652    0.2122 H   0  0  0  0  0  0  0  0  0  0  0  0
    0.5086    0.4519   -1.6200 H   0  0  0  0  0  0  0  0  0  0  0  0
    0.8929    1.9549   -0.8267 H   0  0  0  0  0  0  0  0  0  0  0  0
   -1.6029    1.6874   -1.0702 H   0  0  0  0  0  0  0  0  0  0  0  0
   -1.1481    1.7674    0.6118 H   0  0  0  0  0  0  0  0  0  0  0  0
  1  2  1  0  0  0  0
  2  3  1  0  0  0  0
  3  4  1  0  0  0  0
  4  5  1  0  0  0  0
  5  6  1  0  0  0  0
  6  7  1  0  0  0  0
  7  8  1  0  0  0  0
  7  9  2  0  0  0  0
  6 10  1  0  0  0  0
  3 11  1  0  0  0  0
 10 11  1  0  0  0  0
  1 12  1  0  0  0  0
  1 13  1  0  0  0  0
  1 14  1  0  0  0  0
  2 15  1  0  0  0  0
  2 16  1  0  0  0  0
  3 17  1  0  0  0  0
  4 18  1  0  0  0  0
  4 19  1  0  0  0  0
  5 20  1  0  0  0  0
  5 21  1  0  0  0  0
  6 22  1  0  0  0  0
  8 23  1  0  0  0  0
 10 24  1  0  0  0  0
 10 25  1  0  0  0  0
 11 26  1  0  0  0  0
 11 27  1  0  0  0  0
M  CHG  1   1   1
M  END
