  13

 N         -1.5246582129        0.9929130851       -0.2115441079
 C         -1.1941325025       -0.3341774542        0.3866918921
 C          0.0497764754       -0.9800325052       -0.2321434725
 C          1.2583063591       -0.2703330697       -0.0138215149
 C          2.2982364770        0.3234063896        0.1708059254
 H         -2.3696615594        1.4030611312        0.2139352899
 H         -1.6959315265        0.9112697511       -1.2243883406
 H         -0.7526738233        1.6650201870       -0.0818488170
 H         -2.0625125958       -0.9983331562        0.2779436249
 H         -1.0437205038       -0.2119786231        1.4675446898
 H         -0.0974866923       -1.0930323692       -1.3136522808
 H          0.1774195785       -2.0002384355        0.1544749683
 H          3.2257094343        0.8316828124        0.3310404233
          13
        -15.04551650
 N         -1.6804687147       -0.8184505326        0.1542421100
 C         -1.1794114882        0.4737318736       -0.4008713231
 C          0.1129296303        0.9539406632        0.2671680171
 C          1.2358836485        0.1136416760        0.0592381494
 C          2.2094128029       -0.5862110989       -0.1138757583
 H         -0.9797565562       -1.5656077323        0.0460699213
 H         -2.5417672612       -1.1291930606       -0.3206353105
 H         -1.8944596702       -0.7342072526        1.1604488591
 H         -1.9671741086        1.2323818031       -0.2978887323
 H         -1.0116775704        0.3591684261       -1.4799073718
 H         -0.0504766382        1.0558132613        1.3472360594
 H          0.3698515978        1.9609685324       -0.0882754234
 H          3.0807971098       -1.1872140702       -0.2661056780
