  13

 N          0.9148006779       -0.0646155160        0.0404348579
 C          2.3970997035        0.0429286715       -0.1042176958
 C          2.9383842367        0.7592007521        1.1348943930
 C          2.3798988327        0.1393529423        2.3248385826
 C          1.8211084271       -0.4074056842        3.2332155187
 H          0.5013343198       -0.7473431614       -0.6040533000
 H          0.4623189864        0.8467489508       -0.1021093370
 H          0.7607692624       -0.3527964202        1.0332610454
 H          2.6479434551        0.5803663851       -1.0181995800
 H          2.8070025406       -0.9670068568       -0.1581946039
 H          2.6781800164        1.8205375394        1.1218072526
 H          4.0262535990        0.6839184706        1.1601853382
 H          1.4124559424       -0.8597260731        4.0886675282
