 xtb: 6.5.1 (fef0646)
          01242317123D

 18 17  0     0  0            999 V2000
   -1.4584    1.2165   -0.0322 N   0  0  0  0  0  0  0  0  0  0  0  0
   -1.5777   -0.2345   -0.3826 C   0  0  0  0  0  0  0  0  0  0  0  0
   -0.6441   -1.1008    0.4722 C   0  0  0  0  0  0  0  0  0  0  0  0
    0.7607   -1.2924   -0.1161 C   0  0  0  0  0  0  0  0  0  0  0  0
    1.4545    0.0080   -0.5177 C   0  0  0  0  0  0  0  0  0  0  0  0
    1.4216    1.0012    0.4890 O   0  0  0  0  0  0  0  0  0  0  0  0
   -1.8204    1.8305   -0.7686 H   0  0  0  0  0  0  0  0  0  0  0  0
   -0.4589    1.4166    0.1245 H   0  0  0  0  0  0  0  0  0  0  0  0
   -1.9519    1.4260    0.8407 H   0  0  0  0  0  0  0  0  0  0  0  0
   -1.3521   -0.3871   -1.4444 H   0  0  0  0  0  0  0  0  0  0  0  0
   -2.6251   -0.5385   -0.2594 H   0  0  0  0  0  0  0  0  0  0  0  0
   -1.0993   -2.0837    0.6504 H   0  0  0  0  0  0  0  0  0  0  0  0
   -0.5604   -0.6386    1.4619 H   0  0  0  0  0  0  0  0  0  0  0  0
    0.7033   -1.9557   -0.9876 H   0  0  0  0  0  0  0  0  0  0  0  0
    1.3867   -1.8234    0.6101 H   0  0  0  0  0  0  0  0  0  0  0  0
    0.9547    0.4508   -1.3885 H   0  0  0  0  0  0  0  0  0  0  0  0
    2.4949   -0.1580   -0.8288 H   0  0  0  0  0  0  0  0  0  0  0  0
    2.1077    0.8803    1.1598 H   0  0  0  0  0  0  0  0  0  0  0  0
  1  2  1  0  0  0  0
  2  3  1  0  0  0  0
  3  4  1  0  0  0  0
  4  5  1  0  0  0  0
  5  6  1  0  0  0  0
  1  7  1  0  0  0  0
  1  8  1  0  0  0  0
  1  9  1  0  0  0  0
  2 10  1  0  0  0  0
  2 11  1  0  0  0  0
  3 12  1  0  0  0  0
  3 13  1  0  0  0  0
  4 14  1  0  0  0  0
  4 15  1  0  0  0  0
  5 16  1  0  0  0  0
  5 17  1  0  0  0  0
  6 18  1  0  0  0  0
M  CHG  1   1   1
M  END
