29
1.237
N           -3.92459  -0.10610  -0.08461
C           -2.71688  -0.72109   0.54132
C           -1.65534   0.30337   0.93238
C           -1.05914   1.07289  -0.24949
C           -0.35835   0.19510  -1.29162
C            0.81644  -0.62323  -0.74691
C            1.96695   0.23082  -0.21145
C            3.15851  -0.60052   0.26887
C            4.30056   0.25335   0.80070
H           -3.68790   0.36815  -0.96330
H           -4.34388   0.58884   0.54277
H           -4.63836  -0.81256  -0.29602
H           -2.29080  -1.46226  -0.14296
H           -3.02949  -1.28990   1.42547
H           -0.84982  -0.19082   1.48706
H           -2.09586   1.01067   1.64440
H           -0.35273   1.82443   0.12153
H           -1.85078   1.65538  -0.73394
H            0.00173   0.82306  -2.11538
H           -1.09264  -0.47651  -1.75065
H            1.20219  -1.28340  -1.53309
H            0.46712  -1.29944   0.04042
H            1.61274   0.86185   0.61042
H            2.29724   0.92897  -0.98854
H            3.51439  -1.23232  -0.55382
H            2.82214  -1.30146   1.04234
H            4.67364   0.93355   0.03435
H            5.14153  -0.35432   1.13831
H            3.97644   0.86344   1.64444
