29
 xtb: 6.5.1 (fef0646)
N           -3.93161257466478       -0.10872183456710       -0.07249488174717
C           -2.70974161836493       -0.71719117534668        0.52799033638514
C           -1.66603554027692        0.32002132620312        0.93351596547016
C           -1.06168285062395        1.07504777780509       -0.25493010202616
C           -0.35674659724014        0.18704264704938       -1.28678378627435
C            0.81294256977028       -0.63012289826816       -0.72989238382890
C            1.97337309113183        0.22656204065721       -0.22072643455268
C            3.15624455162600       -0.60350705933491        0.28310911719343
C            4.30954709352379        0.25467034267532        0.78364825390932
H           -3.66162835127010        0.49312413448296       -0.88528564573505
H           -4.43131563739089        0.48274717345563        0.60522178811613
H           -4.58124971387918       -0.83323613133764       -0.42479661369046
H           -2.28327874011971       -1.44936654306083       -0.15608214473435
H           -3.02265918560244       -1.30201957262589        1.41480293725025
H           -0.85367032845273       -0.18230951596942        1.49169460008586
H           -2.10284197626475        1.01732443398156        1.64022901319437
H           -0.35437679776397        1.82666048910012        0.11849603742427
H           -1.85025639758902        1.65544612276750       -0.73938311381348
H            0.00402466982152        0.81869067429044       -2.11476714145276
H           -1.09178711833867       -0.47896938461033       -1.74941841901572
H            1.19825658573349       -1.29167407636423       -1.52441851203823
H            0.46559339410054       -1.29523007292898        0.05041530658054
H            1.61672558935421        0.86889664086027        0.60236246343451
H            2.30110730574419        0.91989466201358       -0.99730388651503
H            3.51091709309361       -1.24205453622476       -0.54423000711150
H            2.81981213544171       -1.29396305848522        1.05320601224704
H            4.67864437057531        0.92450747769670        0.02224841034244
H            5.14189432181178       -0.35354694157617        1.13967363592638
H            3.98138978545272        0.87386342383033        1.63313846244054
