 xtb: 6.5.1 (fef0646)
          01242317113D

 29 28  0     0  0            999 V2000
   -3.9246   -0.1061   -0.0846 N   0  0  0  0  0  0  0  0  0  0  0  0
   -2.7169   -0.7211    0.5413 C   0  0  0  0  0  0  0  0  0  0  0  0
   -1.6553    0.3034    0.9324 C   0  0  0  0  0  0  0  0  0  0  0  0
   -1.0591    1.0729   -0.2495 C   0  0  0  0  0  0  0  0  0  0  0  0
   -0.3584    0.1951   -1.2916 C   0  0  0  0  0  0  0  0  0  0  0  0
    0.8164   -0.6232   -0.7469 C   0  0  0  0  0  0  0  0  0  0  0  0
    1.9670    0.2308   -0.2115 C   0  0  0  0  0  0  0  0  0  0  0  0
    3.1585   -0.6005    0.2689 C   0  0  0  0  0  0  0  0  0  0  0  0
    4.3006    0.2533    0.8007 C   0  0  0  0  0  0  0  0  0  0  0  0
   -3.6879    0.3682   -0.9633 H   0  0  0  0  0  0  0  0  0  0  0  0
   -4.3439    0.5889    0.5428 H   0  0  0  0  0  0  0  0  0  0  0  0
   -4.6384   -0.8125   -0.2960 H   0  0  0  0  0  0  0  0  0  0  0  0
   -2.2908   -1.4622   -0.1429 H   0  0  0  0  0  0  0  0  0  0  0  0
   -3.0295   -1.2899    1.4255 H   0  0  0  0  0  0  0  0  0  0  0  0
   -0.8498   -0.1908    1.4871 H   0  0  0  0  0  0  0  0  0  0  0  0
   -2.0958    1.0107    1.6444 H   0  0  0  0  0  0  0  0  0  0  0  0
   -0.3527    1.8244    0.1215 H   0  0  0  0  0  0  0  0  0  0  0  0
   -1.8508    1.6554   -0.7339 H   0  0  0  0  0  0  0  0  0  0  0  0
    0.0017    0.8231   -2.1154 H   0  0  0  0  0  0  0  0  0  0  0  0
   -1.0926   -0.4765   -1.7506 H   0  0  0  0  0  0  0  0  0  0  0  0
    1.2022   -1.2834   -1.5331 H   0  0  0  0  0  0  0  0  0  0  0  0
    0.4671   -1.2994    0.0404 H   0  0  0  0  0  0  0  0  0  0  0  0
    1.6127    0.8618    0.6104 H   0  0  0  0  0  0  0  0  0  0  0  0
    2.2972    0.9290   -0.9885 H   0  0  0  0  0  0  0  0  0  0  0  0
    3.5144   -1.2323   -0.5538 H   0  0  0  0  0  0  0  0  0  0  0  0
    2.8221   -1.3015    1.0423 H   0  0  0  0  0  0  0  0  0  0  0  0
    4.6736    0.9335    0.0343 H   0  0  0  0  0  0  0  0  0  0  0  0
    5.1415   -0.3543    1.1383 H   0  0  0  0  0  0  0  0  0  0  0  0
    3.9765    0.8634    1.6444 H   0  0  0  0  0  0  0  0  0  0  0  0
  1  2  1  0  0  0  0
  2  3  1  0  0  0  0
  3  4  1  0  0  0  0
  4  5  1  0  0  0  0
  5  6  1  0  0  0  0
  6  7  1  0  0  0  0
  7  8  1  0  0  0  0
  8  9  1  0  0  0  0
  1 10  1  0  0  0  0
  1 11  1  0  0  0  0
  1 12  1  0  0  0  0
  2 13  1  0  0  0  0
  2 14  1  0  0  0  0
  3 15  1  0  0  0  0
  3 16  1  0  0  0  0
  4 17  1  0  0  0  0
  4 18  1  0  0  0  0
  5 19  1  0  0  0  0
  5 20  1  0  0  0  0
  6 21  1  0  0  0  0
  6 22  1  0  0  0  0
  7 23  1  0  0  0  0
  7 24  1  0  0  0  0
  8 25  1  0  0  0  0
  8 26  1  0  0  0  0
  9 27  1  0  0  0  0
  9 28  1  0  0  0  0
  9 29  1  0  0  0  0
M  CHG  1   1   1
M  END
