21
 xtb: 6.5.1 (fef0646)
N           -0.71378269556534       -1.11602016939516       -1.00647840120867
C           -0.11142537063657       -1.86079132788974        0.14590186806499
C            0.59249094526851       -0.93720312389370        1.15043503521582
C            2.09408063693458       -0.74666523407274        0.90621879940981
C            2.45827921746030       -0.08105950394125       -0.42322292966088
C            1.89733878261397        1.32638383681265       -0.56988844504663
Cl          -2.41230390990227        1.35437501416134        0.00053638322838
H           -1.27583832632419       -0.42309878254886       -0.75132651044474
H           -1.19071807629416       -1.83576386891882       -1.64445161369483
H            0.09127078773118       -0.78368367845425       -1.62434090174583
H            0.61486829446506       -2.68117597206107       -0.16061168970646
H           -0.90587567163187       -2.43242318522693        0.65116475967094
H            0.44517864646088       -1.31842340714477        2.16637958451992
H            0.08192788966961        0.02001338364553        1.12179613901087
H            2.59912932174133       -1.71978166185277        0.98263519624723
H            2.51584401151531       -0.14650117086994        1.72459062541870
H            2.13839903228416       -0.71672689756542       -1.25400561926075
H            3.55901776401608       -0.04411216240656       -0.52074235848550
H            2.20941139279731        1.79138501292397       -1.51026505829637
H            2.22674423476154        1.97054448810571        0.24100995146294
H            0.80728570964050        1.32118830145679       -0.56172724372522
