35
0.019
N           -5.75362  -1.65076  -0.91409
C           -5.91113  -1.00150   0.42009
C           -5.33184   0.41134   0.45799
C           -3.85466   0.44290   0.20041
C           -3.35079   0.85311  -1.02848
C           -1.99894   0.85481  -1.27193
C           -1.08531   0.44139  -0.29037
C            0.31977   0.45933  -0.58049
C            1.31025   0.08613   0.27309
C            2.71555   0.10702  -0.01587
C            3.62464  -0.30985   0.96570
C            4.98494  -0.30775   0.73436
F            5.83540  -0.71516   1.68977
C            5.46684   0.11736  -0.49683
C            4.59191   0.53308  -1.48003
C            3.23560   0.53077  -1.25081
C           -1.60452   0.02724   0.94590
C           -2.95881   0.02925   1.17903
H           -4.76220  -1.70065  -1.17565
H           -6.24336  -1.11534  -1.64003
H           -6.12966  -2.60608  -0.91599
H           -5.41939  -1.62023   1.17917
H           -6.97412  -0.98582   0.68947
H           -5.53274   0.88341   1.42616
H           -5.84093   1.03583  -0.28249
H           -4.03360   1.17821  -1.79470
H           -1.62791   1.17819  -2.22937
H            0.59454   0.80104  -1.56156
H            1.03573  -0.25717   1.25368
H            3.26982  -0.64118   1.92458
H            6.52996   0.11479  -0.66363
H            4.97545   0.86117  -2.43255
H            2.57091   0.85872  -2.02958
H           -0.93892  -0.29664   1.72576
H           -3.33934  -0.29072   2.13418
