35
 xtb: 6.5.1 (fef0646)
N           -5.72712102923961       -1.68664489899745       -0.90944470198277
C           -5.89436608812688       -1.02663310886256        0.41945160788032
C           -5.33613236259896        0.39527637053737        0.44541673333246
C           -3.85824401349896        0.44400584446062        0.19413501589073
C           -3.35532245564326        0.81832150373580       -1.04722135349581
C           -2.00243490522208        0.83177285978305       -1.28494889319781
C           -1.08698182640234        0.46443177051755       -0.28565360822426
C            0.31840374767929        0.48216453898267       -0.57423763180488
C            1.30965786270344        0.13581998942109        0.29020052313195
C            2.71430691523517        0.14129214908378       -0.00311909389384
C            3.62073992352781       -0.30665541102667        0.96769807178421
C            4.97946472954215       -0.33343851451184        0.72669282149828
F            5.82431413814801       -0.80039436323759        1.66128395454192
C            5.46220612131267        0.08938513552398       -0.50496110659890
C            4.59048395433399        0.54533083883500       -1.47397683637630
C            3.23591206437500        0.57448057893445       -1.23415443353986
C           -1.60511582010017        0.08867520473784        0.96393909063916
C           -2.96034557878629        0.07987900140418        1.19170927633746
H           -4.75527959745649       -1.70177603919268       -1.17669431986662
H           -6.24304525851138       -1.13148317344310       -1.63900532286357
H           -6.11377090098304       -2.61917975852399       -0.91110833039216
H           -5.41135222741966       -1.62338727031373        1.18027550801943
H           -6.96922702893731       -0.99714803739543        0.68976739989878
H           -5.53695133446540        0.88075407714094        1.42090938019683
H           -5.84379020843803        1.02686514657928       -0.28864792906653
H           -4.03537114536219        1.15707321218158       -1.80442449976119
H           -1.62914987991671        1.16290679618835       -2.23613704473902
H            0.59382624074732        0.79722205944326       -1.56347574965779
H            1.03577365276026       -0.23469805105760        1.26152333354688
H            3.26837431741990       -0.64197518382074        1.92444081635894
H            6.52814010709180        0.09813601785874       -0.66889512331484
H            4.97530347545697        0.86579278439499       -2.43032256421953
H            2.57177262101465        0.88128056200816       -2.02124784508650
H           -0.93862395893285       -0.26751332042298        1.73529439763911
H           -3.33964567771094       -0.26738376762997        2.14081780174359
