  47

 N          4.8408034537        2.3554425681       -2.2422838584
 C          4.4898686713        2.4015167525       -0.7952079548
 C          3.9902221955        1.0063386979       -0.3921516260
 C          5.0095831363       -0.0029481058       -0.8054912523
 C          5.1536029101       -0.5562821492       -2.0582189859
 C          6.3105530030       -1.3454660085       -2.1807315903
 C          7.0714328915       -1.3722922661       -1.0371555180
 C          8.2906977735       -2.0711124694       -0.8248995686
 C          9.0251081928       -2.2057819873        0.3307184416
 C         10.1808212794       -2.9829091781        0.1863549216
 C         11.1120011430       -3.2582151941        1.3162534558
 C         10.3437374249       -3.4445892626       -1.1148835980
 C         11.3761171801       -4.2594758089       -1.6574375797
 C         11.6004641245       -4.5649089090       -2.9926378437
 C         10.8544548361       -4.0630513683       -4.0725333088
 N         10.2658708939       -3.6523451223       -4.9677291638
 C         12.7052370815       -5.4355390832       -3.1977694052
 C         13.0628377178       -5.8349260754       -4.4976526711
 N         13.2982083781       -6.1194371728       -5.5831227323
 C         13.3373614602       -5.8129192039       -2.0196685597
 C         14.4551511539       -6.6759997945       -1.8635087970
 C         15.0802123731       -7.0886911391       -0.6943997904
 C         14.6910384714       -6.6863092145        0.6856573883
 C         16.1554259416       -7.9589666699       -0.9563585584
 C         16.3459947370       -8.2021631811       -2.2816259498
 S         15.2210377882       -7.3803749366       -3.2699524818
 S         12.5555621467       -5.0632377115       -0.6570146592
 S          9.0448126357       -2.9130186349       -2.1458762324
 S          6.3468992102       -0.4109431520        0.2218028425
 H          5.5229626032        3.0700608804       -2.5102184503
 H          4.0063368125        2.4545139407       -2.8298870192
 H          5.2372251069        1.3739926691       -2.3859467686
 H          3.7369774882        3.1664854251       -0.6114132739
 H          5.3904349737        2.6403537885       -0.2283682293
 H          3.0344444228        0.7948712883       -0.8753114252
 H          3.8378584859        0.9821777105        0.6853800942
 H          4.3976523671       -0.5171994053       -2.8264619892
 H          6.5799795222       -1.8892890132       -3.0670875588
 H          8.7303980986       -1.7580051566        1.2644758814
 H         10.8141125870       -2.6853634659        2.1902897261
 H         12.1346760417       -2.9897509069        1.0539374537
 H         11.1003130527       -4.3166171984        1.5766116814
 H         13.6605815264       -6.9718315142        0.8998805682
 H         14.7747164814       -5.6067352293        0.8158670667
 H         15.3410186595       -7.1722601801        1.4081603983
 H         16.7647142337       -8.3891189757       -0.1820363552
 H         17.0899193313       -8.8236988765       -2.7390771643
