41
 xtb: 6.5.1 (fef0646)
N            6.09874642761572       -1.59045831239700       -0.90231646976312
C            6.10099245472283       -0.47765165390441        0.09808788187879
C            4.90782580928024        0.46337548383706       -0.04338230420111
C            3.55177379942054       -0.18685617156582        0.22459820249877
C            2.39155747342498        0.80071565674340        0.08794317982660
C            1.02581025159596        0.16387625377060        0.34414338060094
C           -0.13224823656787        1.15164504350476        0.19887378626272
C           -1.49682942107690        0.51802952854493        0.47207711033782
C           -2.65571255442563        1.50412514144749        0.31973036192871
C           -4.02253223686675        0.90493761795168        0.66276221187890
C           -4.46931088708307       -0.19752998140990       -0.29824871422796
C           -5.86013491935374       -0.74604808983644        0.02504437696733
C           -6.29803948385220       -1.84653289042166       -0.92982195349356
H            5.97550053754199       -1.18737647400631       -1.85633664665684
H            5.34365092296409       -2.26911167720019       -0.74093956818149
H            7.00219888277559       -2.10064779598948       -0.88887215539446
H            7.03131365192559        0.06378159753247        0.05069308633120
H            6.07573669067279       -0.93377494804869        1.11889238809543
H            4.92605285144956        0.88462128489228       -1.05857988143575
H            5.03615217286250        1.32427397225956        0.62240984792541
H            3.54141831444954       -0.62168274591375        1.21735568150056
H            3.39874200376447       -1.01742161276281       -0.47121265121575
H            2.40366175135521        1.25060131087537       -0.92433358583250
H            2.54014181859531        1.64816058155914        0.76411383325437
H            1.01425166984496       -0.27241040206849        1.34123304955834
H            0.87894886272809       -0.67369328611704       -0.34647440315872
H           -0.12585523358748        1.58856781277338       -0.80879998535964
H            0.02075023862280        2.00147368214766        0.87523727037323
H           -1.50442690240303        0.09204086441945        1.48119435915183
H           -1.63933684667877       -0.33367324718975       -0.20080992005762
H           -2.67484603086883        1.89198378257271       -0.70149697372391
H           -2.46406328322064        2.37655280263325        0.95737920616865
H           -4.78331483930234        1.69109005416218        0.68063898440259
H           -4.00039694237603        0.50638851771292        1.68795051414913
H           -3.74459005037507       -1.02066183140606       -0.28651426889583
H           -4.45634625684703        0.18277758704998       -1.32235783531430
H           -6.58574122925716        0.07155409250253        0.01554402481281
H           -5.86872442311734       -1.12203335104329        1.06030692294277
H           -7.28929394832883       -2.23215111460465       -0.68240677841136
H           -5.60511222051469       -2.69172454426916       -0.90206085933554
H           -6.32864108445696       -1.48808346649381       -1.95530322571472
