 xtb: 6.5.1 (fef0646)
          01242317113D

 41 40  0     0  0            999 V2000
    6.1054   -1.5809   -0.9078 N   0  0  0  0  0  0  0  0  0  0  0  0
    6.0839   -0.5003    0.1222 C   0  0  0  0  0  0  0  0  0  0  0  0
    4.9149    0.4654   -0.0487 C   0  0  0  0  0  0  0  0  0  0  0  0
    3.5522   -0.1761    0.2114 C   0  0  0  0  0  0  0  0  0  0  0  0
    2.3915    0.8100    0.0734 C   0  0  0  0  0  0  0  0  0  0  0  0
    1.0278    0.1705    0.3360 C   0  0  0  0  0  0  0  0  0  0  0  0
   -0.1330    1.1558    0.1966 C   0  0  0  0  0  0  0  0  0  0  0  0
   -1.4956    0.5185    0.4719 C   0  0  0  0  0  0  0  0  0  0  0  0
   -2.6566    1.5028    0.3239 C   0  0  0  0  0  0  0  0  0  0  0  0
   -4.0219    0.9007    0.6680 C   0  0  0  0  0  0  0  0  0  0  0  0
   -4.4689   -0.2003   -0.2945 C   0  0  0  0  0  0  0  0  0  0  0  0
   -5.8585   -0.7512    0.0302 C   0  0  0  0  0  0  0  0  0  0  0  0
   -6.2968   -1.8506   -0.9257 C   0  0  0  0  0  0  0  0  0  0  0  0
    6.1251   -1.1809   -1.8528 H   0  0  0  0  0  0  0  0  0  0  0  0
    5.2725   -2.1768   -0.8383 H   0  0  0  0  0  0  0  0  0  0  0  0
    6.9293   -2.1849   -0.8035 H   0  0  0  0  0  0  0  0  0  0  0  0
    7.0325    0.0485    0.0794 H   0  0  0  0  0  0  0  0  0  0  0  0
    6.0487   -0.9492    1.1211 H   0  0  0  0  0  0  0  0  0  0  0  0
    4.9331    0.8831   -1.0607 H   0  0  0  0  0  0  0  0  0  0  0  0
    5.0381    1.3252    0.6203 H   0  0  0  0  0  0  0  0  0  0  0  0
    3.5400   -0.6191    1.2133 H   0  0  0  0  0  0  0  0  0  0  0  0
    3.3979   -1.0147   -0.4752 H   0  0  0  0  0  0  0  0  0  0  0  0
    2.4028    1.2526   -0.9288 H   0  0  0  0  0  0  0  0  0  0  0  0
    2.5404    1.6513    0.7593 H   0  0  0  0  0  0  0  0  0  0  0  0
    1.0165   -0.2706    1.3389 H   0  0  0  0  0  0  0  0  0  0  0  0
    0.8789   -0.6718   -0.3487 H   0  0  0  0  0  0  0  0  0  0  0  0
   -0.1272    1.5905   -0.8092 H   0  0  0  0  0  0  0  0  0  0  0  0
    0.0206    2.0023    0.8751 H   0  0  0  0  0  0  0  0  0  0  0  0
   -1.5032    0.0916    1.4809 H   0  0  0  0  0  0  0  0  0  0  0  0
   -1.6390   -0.3332   -0.2012 H   0  0  0  0  0  0  0  0  0  0  0  0
   -2.6758    1.8923   -0.7000 H   0  0  0  0  0  0  0  0  0  0  0  0
   -2.4644    2.3758    0.9591 H   0  0  0  0  0  0  0  0  0  0  0  0
   -4.7835    1.6895    0.6831 H   0  0  0  0  0  0  0  0  0  0  0  0
   -3.9995    0.5045    1.6892 H   0  0  0  0  0  0  0  0  0  0  0  0
   -3.7442   -1.0212   -0.2862 H   0  0  0  0  0  0  0  0  0  0  0  0
   -4.4569    0.1825   -1.3211 H   0  0  0  0  0  0  0  0  0  0  0  0
   -6.5856    0.0698    0.0179 H   0  0  0  0  0  0  0  0  0  0  0  0
   -5.8675   -1.1241    1.0616 H   0  0  0  0  0  0  0  0  0  0  0  0
   -7.2886   -2.2339   -0.6808 H   0  0  0  0  0  0  0  0  0  0  0  0
   -5.6044   -2.6926   -0.9017 H   0  0  0  0  0  0  0  0  0  0  0  0
   -6.3290   -1.4888   -1.9539 H   0  0  0  0  0  0  0  0  0  0  0  0
  1  2  1  0  0  0  0
  2  3  1  0  0  0  0
  3  4  1  0  0  0  0
  4  5  1  0  0  0  0
  5  6  1  0  0  0  0
  6  7  1  0  0  0  0
  7  8  1  0  0  0  0
  8  9  1  0  0  0  0
  9 10  1  0  0  0  0
 10 11  1  0  0  0  0
 11 12  1  0  0  0  0
 12 13  1  0  0  0  0
  1 14  1  0  0  0  0
  1 15  1  0  0  0  0
  1 16  1  0  0  0  0
  2 17  1  0  0  0  0
  2 18  1  0  0  0  0
  3 19  1  0  0  0  0
  3 20  1  0  0  0  0
  4 21  1  0  0  0  0
  4 22  1  0  0  0  0
  5 23  1  0  0  0  0
  5 24  1  0  0  0  0
  6 25  1  0  0  0  0
  6 26  1  0  0  0  0
  7 27  1  0  0  0  0
  7 28  1  0  0  0  0
  8 29  1  0  0  0  0
  8 30  1  0  0  0  0
  9 31  1  0  0  0  0
  9 32  1  0  0  0  0
 10 33  1  0  0  0  0
 10 34  1  0  0  0  0
 11 35  1  0  0  0  0
 11 36  1  0  0  0  0
 12 37  1  0  0  0  0
 12 38  1  0  0  0  0
 13 39  1  0  0  0  0
 13 40  1  0  0  0  0
 13 41  1  0  0  0  0
M  CHG  1   1   1
M  END
