30
0.541
N           -3.64943   1.15498   0.44985
C           -2.93255   2.11406  -0.44113
C           -1.45614   2.26228  -0.08428
C           -0.65069   0.98210  -0.30386
C            0.83615   1.14655   0.01284
C            1.63513  -0.13888  -0.20210
C            3.12109   0.01918   0.11983
C            3.92099  -1.26594  -0.09832
C            5.39868  -1.10205   0.22530
Cl          -2.30763  -2.11439   0.08359
H           -4.65457   1.10403   0.23235
H           -3.55401   1.43049   1.43656
H           -3.26324   0.20041   0.35729
H           -3.43076   3.09083  -0.39392
H           -3.02849   1.78811  -1.48342
H           -1.36253   2.57636   0.96173
H           -1.00634   3.07437  -0.66912
H           -0.77144   0.64385  -1.33994
H           -1.06279   0.17342   0.31006
H            0.95683   1.48678   1.04825
H            1.25821   1.95082  -0.60192
H            1.51633  -0.47715  -1.23858
H            1.20935  -0.94343   0.40930
H            3.23947   0.35517   1.15715
H            3.54632   0.82575  -0.48977
H            3.79602  -1.59875  -1.13703
H            3.48761  -2.07038   0.51018
H            5.54475  -0.80585   1.26582
H            5.85577  -0.32929  -0.39558
H            5.95956  -2.02567   0.06537
