30
 xtb: 6.5.1 (fef0646)
N           -3.70091817268694        1.29646076668287        0.46997990606234
C           -2.92868966687300        2.17857944049047       -0.45424133143136
C           -1.45066878351679        2.28142089759811       -0.08571207822146
C           -0.66631552653586        0.98592613570304       -0.30101175002329
C            0.82222125395527        1.13999637506142        0.01894445130219
C            1.62288189218159       -0.14345017935857       -0.20304224583401
C            3.10878901464502        0.01642072068351        0.12098425910579
C            3.91219962497211       -1.26604292687386       -0.10152109644421
C            5.38953850237610       -1.10134921441049        0.22407991787928
Cl          -2.22613788753761       -2.27484782402857        0.07514351826225
H           -4.66719438766749        1.14460277927583        0.23068210390526
H           -3.57336026453791        1.48218248881475        1.43895064016941
H           -3.28180430235534        0.24027573239316        0.37834640923434
H           -3.41874885863844        3.11567592467644       -0.40989522306251
H           -3.02833414452304        1.79615140251891       -1.48366456644622
H           -1.36096297401384        2.58145581317352        0.96147291238228
H           -0.99770169306337        3.07701599970202       -0.66828079650597
H           -0.77592109309753        0.64506947954167       -1.33910148735695
H           -1.07024079773721        0.17544755416314        0.31041964301659
H            0.95269391798648        1.48285968224906        1.05069307260288
H            1.25475285011475        1.95004066638414       -0.59844268065594
H            1.51308788870733       -0.47680360028242       -1.23938329781679
H            1.20581368067924       -0.94593246559964        0.40744396718103
H            3.23554576679727        0.35313985706587        1.15791072443548
H            3.54249229690713        0.82597201688248       -0.48836388820707
H            3.79381494966322       -1.59764551450114       -1.13834550568649
H            3.48519944795000       -2.07128039784225        0.50819406950389
H            5.54181974337472       -0.80686273077039        1.26583199078819
H            5.85312411011389       -0.32832010023619       -0.39498573824295
H            5.95713621196866       -2.02520255259690        0.06407904065683
