18
 xtb: 6.5.1 (fef0646)
N           -2.80711352384012        2.05128418715526        0.19882249190562
C           -1.83939023516528        2.52769618034658        1.22392295303414
C           -0.46900863447828        1.87256138697821        1.08450120398504
C           -0.46479995777519        0.38245956478529        1.42848103806269
C            0.90512678214158       -0.25675701112557        1.24549056112231
I            1.50468063543702       -0.36997812566681       -0.76820994362834
Cl          -3.43261885065917       -1.53671991790116        0.65295199143049
H           -3.74425544667483        2.48181308752825        0.28465379166175
H           -3.01223963607184        0.98964251378759        0.34571125399593
H           -2.48044418350758        2.12472501038262       -0.74768049335969
H           -2.23734409192201        2.33479123867914        2.22916803164820
H           -1.76758507414242        3.59343454664071        1.11186742299793
H            0.25364004218479        2.37180143891587        1.70142164419880
H           -0.12223468189350        1.99243574265517        0.04256176054817
H           -1.19500607144032       -0.16364694420266        0.77683109727434
H           -0.83291502716381        0.22482067972267        2.44233483339314
H            0.90672722296073       -1.30918960205371        1.59185799939325
H            1.65816202240322        0.26835794017613        1.80141910322547
