 xtb: 6.5.1 (fef0646)
          01242310113D

 18 16  0     0  0            999 V2000
   -2.8443    1.9766    0.2247 N   0  0  0  0  0  0  0  0  0  0  0  0
   -1.8581    2.4943    1.2131 C   0  0  0  0  0  0  0  0  0  0  0  0
   -0.4848    1.8477    1.0640 C   0  0  0  0  0  0  0  0  0  0  0  0
   -0.4772    0.3577    1.4064 C   0  0  0  0  0  0  0  0  0  0  0  0
    0.8929   -0.2822    1.2333 C   0  0  0  0  0  0  0  0  0  0  0  0
    1.5714   -0.3512   -0.7750 I   0  0  0  0  0  0  0  0  0  0  0  0
   -3.4887   -1.4404    0.6910 Cl  0  0  0  0  0  0  0  0  0  0  0  0
   -3.7531    2.4639    0.2907 H   0  0  0  0  0  0  0  0  0  0  0  0
   -3.0252    0.9688    0.3627 H   0  0  0  0  0  0  0  0  0  0  0  0
   -2.4947    2.0951   -0.7433 H   0  0  0  0  0  0  0  0  0  0  0  0
   -2.2364    2.3320    2.2296 H   0  0  0  0  0  0  0  0  0  0  0  0
   -1.7762    3.5831    1.1001 H   0  0  0  0  0  0  0  0  0  0  0  0
    0.2497    2.3653    1.6941 H   0  0  0  0  0  0  0  0  0  0  0  0
   -0.1292    1.9856    0.0359 H   0  0  0  0  0  0  0  0  0  0  0  0
   -1.1972   -0.1702    0.7686 H   0  0  0  0  0  0  0  0  0  0  0  0
   -0.8385    0.2170    2.4352 H   0  0  0  0  0  0  0  0  0  0  0  0
    0.9012   -1.3181    1.5838 H   0  0  0  0  0  0  0  0  0  0  0  0
    1.6526    0.2579    1.8035 H   0  0  0  0  0  0  0  0  0  0  0  0
  1  2  1  0  0  0  0
  2  3  1  0  0  0  0
  3  4  1  0  0  0  0
  4  5  1  0  0  0  0
  5  6  1  0  0  0  0
  1  8  1  0  0  0  0
  1  9  1  0  0  0  0
  1 10  1  0  0  0  0
  2 11  1  0  0  0  0
  2 12  1  0  0  0  0
  3 13  1  0  0  0  0
  3 14  1  0  0  0  0
  4 15  1  0  0  0  0
  4 16  1  0  0  0  0
  5 17  1  0  0  0  0
  5 18  1  0  0  0  0
M  END
