 xtb: 6.5.1 (fef0646)
          01242314553D

 18 18  0     0  0            999 V2000
    1.8974   -0.0053    0.4794 N   0  0  0  0  0  0  0  0  0  0  0  0
    0.7866    0.0932   -0.5098 C   0  0  0  0  0  0  0  0  0  0  0  0
   -0.0738   -1.1745   -0.4553 C   0  0  0  0  0  0  0  0  0  0  0  0
   -1.2201   -0.8191    0.4907 C   0  0  0  0  0  0  0  0  0  0  0  0
   -1.5308    0.6255    0.1058 C   0  0  0  0  0  0  0  0  0  0  0  0
   -0.1515    1.2551   -0.1335 C   0  0  0  0  0  0  0  0  0  0  0  0
    2.5271   -0.7797    0.2398 H   0  0  0  0  0  0  0  0  0  0  0  0
    1.5092   -0.1769    1.4149 H   0  0  0  0  0  0  0  0  0  0  0  0
    2.4404    0.8656    0.5029 H   0  0  0  0  0  0  0  0  0  0  0  0
    1.2288    0.2330   -1.4960 H   0  0  0  0  0  0  0  0  0  0  0  0
    0.4832   -2.0507   -0.1323 H   0  0  0  0  0  0  0  0  0  0  0  0
   -0.4792   -1.3822   -1.4444 H   0  0  0  0  0  0  0  0  0  0  0  0
   -0.9065   -0.8765    1.5333 H   0  0  0  0  0  0  0  0  0  0  0  0
   -2.0800   -1.4737    0.3664 H   0  0  0  0  0  0  0  0  0  0  0  0
   -2.0981    1.1519    0.8706 H   0  0  0  0  0  0  0  0  0  0  0  0
   -2.1175    0.6390   -0.8132 H   0  0  0  0  0  0  0  0  0  0  0  0
    0.1901    1.7405    0.7793 H   0  0  0  0  0  0  0  0  0  0  0  0
   -0.1958    2.0113   -0.9132 H   0  0  0  0  0  0  0  0  0  0  0  0
  1  2  1  0  0  0  0
  2  3  1  0  0  0  0
  3  4  1  0  0  0  0
  4  5  1  0  0  0  0
  2  6  1  0  0  0  0
  5  6  1  0  0  0  0
  1  7  1  0  0  0  0
  1  8  1  0  0  0  0
  1  9  1  0  0  0  0
  2 10  1  0  0  0  0
  3 11  1  0  0  0  0
  3 12  1  0  0  0  0
  4 13  1  0  0  0  0
  4 14  1  0  0  0  0
  5 15  1  0  0  0  0
  5 16  1  0  0  0  0
  6 17  1  0  0  0  0
  6 18  1  0  0  0  0
M  CHG  1   1   1
M  END
