40
0.677
N           -3.64853   1.34710  -1.76674
C           -3.19949   2.61814  -1.12011
C           -2.38629   2.36829   0.14597
C           -1.13494   1.52830  -0.09574
C           -0.37684   1.21229   1.18777
N            0.75147   0.30498   0.95743
C            0.64618  -1.16800   1.13267
C            2.01686  -1.69851   0.54527
C            1.87750  -2.69775  -0.56546
C            0.70209  -3.10091  -1.04538
C           -0.54610  -2.61272  -0.51009
C           -0.58625  -1.73691   0.48979
C            1.95072   0.68673   0.33847
C            2.74104  -0.44487   0.09418
C            3.97897  -0.31016  -0.49792
C            4.42596   0.95358  -0.84904
C            3.64262   2.07324  -0.61077
C            2.40326   1.95207  -0.01692
Cl          -4.14179  -0.84220   0.98212
H           -2.86604   0.86908  -2.23506
H           -4.38458   1.50311  -2.47054
H           -4.01407   0.69751  -1.05396
H           -4.07487   3.23593  -0.88369
H           -2.61119   3.20538  -1.83486
H           -3.01786   1.86216   0.88539
H           -2.10320   3.31923   0.61355
H           -0.47173   2.03496  -0.80550
H           -1.40756   0.58883  -0.58709
H           -1.04367   0.75316   1.92298
H           -0.00263   2.12891   1.65348
H            0.60688  -1.36599   2.21466
H            2.59923  -2.15894   1.35716
H            2.78555  -3.07774  -1.00679
H            0.66991  -3.81157  -1.85594
H           -1.46569  -2.97733  -0.93907
H           -1.54327  -1.39436   0.84919
H            4.58183  -1.18299  -0.68255
H            5.39241   1.06684  -1.31311
H            4.00646   3.04878  -0.89085
H            1.79196   2.81577   0.17663
