  23

 N          0.9573900000       -0.0304200000        0.0864100000
 C          2.4392300000       -0.0423900000        0.0814100000
 C          2.9497400000        1.1836700000        0.8226600000
 C          4.4780200000        1.2119800000        0.8399200000
 C          5.0015700000        2.4408800000        1.5827000000
 C          6.5293200000        2.4693400000        1.5997700000
 C          7.0501600000        3.6910500000        2.3377900000
 H          0.5792400000       -0.8493600000       -0.4085700000
 H          0.5831400000        0.8076400000       -0.3780600000
 H          0.5807500000       -0.0504700000        1.0436200000
 H          2.7539100000       -0.0479500000       -0.9662800000
 H          2.7516100000       -0.9726300000        0.5651000000
 H          2.5700800000        1.1818600000        1.8519900000
 H          2.5703300000        2.0943600000        0.3424400000
 H          4.8570900000        1.2152600000       -0.1892800000
 H          4.8569600000        0.3021800000        1.3213700000
 H          4.6222900000        2.4379400000        2.6119100000
 H          4.6223900000        3.3506100000        1.1013200000
 H          6.9134500000        2.4765800000        0.5730100000
 H          6.9135700000        1.5638300000        2.0837200000
 H          6.7072000000        4.6137100000        1.8586600000
 H          8.1444900000        3.6953600000        2.3402700000
 H          6.7074900000        3.6959600000        3.3775900000
