 xtb: 6.5.1 (fef0646)
          01242315513D

 18 18  0     0  0            999 V2000
    2.6426    0.8029    1.2051 N   0  0  0  0  0  0  0  0  0  0  0  0
    2.4887   -0.1288    0.0665 C   0  0  0  0  0  0  0  0  0  0  0  0
    3.0727    0.4780   -1.2119 C   0  0  0  0  0  0  0  0  0  0  0  0
    4.5643    0.5269   -1.1907 C   0  0  0  0  0  0  0  0  0  0  0  0
    5.4477   -0.2062   -1.9166 C   0  0  0  0  0  0  0  0  0  0  0  0
    6.8004    0.0969   -1.6263 C   0  0  0  0  0  0  0  0  0  0  0  0
    6.9390    1.0543   -0.6774 C   0  0  0  0  0  0  0  0  0  0  0  0
    5.4196    1.6207   -0.1318 S   0  0  0  0  0  0  0  0  0  0  0  0
    2.3055    0.3783    2.0753 H   0  0  0  0  0  0  0  0  0  0  0  0
    2.1216    1.6696    1.0308 H   0  0  0  0  0  0  0  0  0  0  0  0
    3.6362    1.0544    1.3156 H   0  0  0  0  0  0  0  0  0  0  0  0
    1.4306   -0.3364   -0.0866 H   0  0  0  0  0  0  0  0  0  0  0  0
    3.0028   -1.0625    0.2926 H   0  0  0  0  0  0  0  0  0  0  0  0
    2.6760    1.4834   -1.3575 H   0  0  0  0  0  0  0  0  0  0  0  0
    2.7670   -0.1297   -2.0628 H   0  0  0  0  0  0  0  0  0  0  0  0
    5.1584   -0.9415   -2.6454 H   0  0  0  0  0  0  0  0  0  0  0  0
    7.6363   -0.3819   -2.1057 H   0  0  0  0  0  0  0  0  0  0  0  0
    7.8352    1.4710   -0.2620 H   0  0  0  0  0  0  0  0  0  0  0  0
  1  2  1  0  0  0  0
  2  3  1  0  0  0  0
  3  4  1  0  0  0  0
  4  5  2  0  0  0  0
  5  6  4  0  0  0  0
  6  7  2  0  0  0  0
  4  8  1  0  0  0  0
  7  8  1  0  0  0  0
  1  9  1  0  0  0  0
  1 10  1  0  0  0  0
  1 11  1  0  0  0  0
  2 12  1  0  0  0  0
  2 13  1  0  0  0  0
  3 14  1  0  0  0  0
  3 15  1  0  0  0  0
  5 16  1  0  0  0  0
  6 17  1  0  0  0  0
  7 18  1  0  0  0  0
M  CHG  1   1   1
M  END
