34
 xtb: 6.5.1 (fef0646)
N            4.48148138814644        0.21610650347842       -0.41291799230119
C            4.13120702098998       -0.92547359931167       -1.30518135599700
C            2.75574619884199       -0.76421618925516       -1.94823587789014
C            1.64547479101636       -0.68324830958248       -0.94428583778358
C            1.03609242402269        0.52934959967252       -0.65250447732288
C            0.01765908445039        0.60094035234704        0.27067297212844
C            1.21967822156020       -1.82041827007847       -0.27278836234682
C            0.20184718276604       -1.75375334383786        0.65207927235723
C           -0.42161849144302       -0.54153046655838        0.93166508193961
N           -1.48516912570214       -0.47991301953558        1.83490787322405
N           -2.60536568031641       -0.01389545550949        1.55029187545373
C           -2.97503194475292        0.37422721970745        0.26153968767943
C           -3.47923967727277        1.65158896667737        0.02648149033558
C           -3.81546112603182        2.04660095464575       -1.24952446864243
C           -3.65672102570159        1.17420455357148       -2.31037524938270
C           -3.16383920124700       -0.09840989301335       -2.09095186990770
C           -2.82841928286882       -0.49649810154341       -0.81623059280234
Cl           2.64776889235076        0.36257198196303        2.45769491493904
H            3.85958031289571        0.28502817736740        0.37348674326817
H            4.43928882309253        1.11062519417473       -0.94837559534189
H            5.45827394239153        0.13320708659288       -0.06331146798889
H            4.16570497771798       -1.85333088703993       -0.73086779126497
H            4.90328211456216       -1.04389720082206       -2.09220376069527
H            2.55689847233903       -1.58874207163765       -2.64345609789783
H            2.75128083649743        0.14208487824269       -2.57174423794777
H            1.35931015643983        1.41769566640479       -1.17190204799455
H           -0.46685105333583        1.53371087483676        0.47526854727407
H            1.70700934999583       -2.76223320946097       -0.48702994846497
H           -0.12028467853563       -2.64255705821482        1.16195607980229
H           -3.53165199664149        2.34421569207219        0.85146264973733
H           -4.14816668172691        3.05760296453563       -1.42459252199112
H           -3.92966106585235        1.48634460842220       -3.30357648457239
H           -3.10516793731866       -0.79681267731407       -2.90713460949618
H           -2.49499880134298       -1.50195204044258       -0.62806463632907
