  23

 N         -3.7193249613       -0.3379735450        0.0005397615
 C         -2.4790335469        0.4948575702        0.0007143295
 C         -1.2066667056       -0.3441974087       -0.0009212580
 C          0.0717188274        0.4974454843       -0.0003786161
 C          1.3466817229       -0.3486570815       -0.0005485754
 C          2.6278813388        0.4883876991        0.0001458428
 C          3.8914409134       -0.3606178713        0.0004324425
 H         -4.5618895525        0.2451978479        0.0036465388
 H         -3.7473193193       -0.9424804930        0.8271527937
 H         -3.7502064602       -0.9379628284       -0.8292487551
 H         -2.4852898553        1.1562527865        0.8741785106
 H         -2.4863101970        1.1582099618       -0.8712593771
 H         -1.2087208529       -1.0083651094       -0.8712344518
 H         -1.2079666051       -1.0104515271        0.8677991428
 H          0.0730352309        1.1622527764        0.8701799362
 H          0.0732652722        1.1631064113       -0.8702848066
 H          1.3447005241       -1.0138255360       -0.8709508765
 H          1.3443435882       -1.0146350839        0.8692382316
 H          2.6243241914        1.1548693353        0.8709106933
 H          2.6249867469        1.1553138797       -0.8702820848
 H          3.9319765193       -1.0062315805        0.8783031425
 H          4.7943289946        0.2518763377        0.0009089609
 H          3.9326363876       -1.0058580510       -0.8776784649
          23
        -23.60669810
 N         -3.7227564319       -0.3325013167        0.0004528619
 C         -2.4810113930        0.4981315158        0.0004029913
 C         -1.2098819959       -0.3428709049       -0.0007813189
 C          0.0695326981        0.4971908331       -0.0005087406
 C          1.3438297764       -0.3498419746       -0.0003851663
 C          2.6251643681        0.4870055881        0.0000389125
 C          3.8887027220       -0.3620267357        0.0006133834
 H         -4.5642738872        0.2521025123        0.0028509331
 H         -3.7522217221       -0.9362624314        0.8275053791
 H         -3.7545767338       -0.9329696587       -0.8289054391
 H         -2.4861248159        1.1599472459        0.8737459490
 H         -2.4869816903        1.1611713220       -0.8720069705
 H         -1.2128212987       -1.0073579572       -0.8709893737
 H         -1.2121951153       -1.0087257395        0.8683839605
 H          0.0714756930        1.1622813405        0.8699523561
 H          0.0717255182        1.1625411123       -0.8707692855
 H          1.3415130338       -1.0152384649       -0.8707308648
 H          1.3411424618       -1.0154752736        0.8697807078
 H          2.6215190960        1.1537736835        0.8707189611
 H          2.6221917108        1.1536398941       -0.8707458047
 H          3.9291971808       -1.0072975054        0.8788025104
 H          4.7915813956        0.2506084851        0.0008905358
 H          3.9298648597       -1.0075050510       -0.8773892163
