  23

 N          0.9467407620        0.0464246829       -0.0724658910
 C          2.4302696366        0.0387257354       -0.0815420942
 C          2.9552904073       -1.0118115422       -1.0536189656
 C          4.4834169563       -1.0297432329       -1.0709981684
 C          5.0194847831       -2.0806805631       -2.0413104291
 C          6.5458622308       -2.1103166091       -2.0694199003
 C          7.0713074973       -3.1618977467       -3.0400383234
 H          0.5893564501        0.7486574366        0.5849203412
 H          0.5910454225       -0.8764326308        0.2037947388
 H          0.5899827281        0.2599404545       -1.0114036501
 H          2.7937972364       -0.1767438714        0.9230016033
 H          2.7917385007        1.0241620181       -0.3748094569
 H          2.6014734002       -0.8027568981       -2.0639287493
 H          2.6023643646       -2.0028717463       -0.7656601936
 H          4.8640695503       -1.2448921933       -0.0707322205
 H          4.8634448085       -0.0496518264       -1.3654594295
 H          4.6525594327       -1.8725585277       -3.0489546661
 H          4.6532906301       -3.0686491736       -1.7529820019
 H          6.9259205037       -2.3245748164       -1.0678666714
 H          6.9253041032       -1.1289874949       -2.3635228273
 H          6.7262624939       -4.1537045589       -2.7552098273
 H          8.1588901356       -3.1691405513       -3.0472348018
 H          6.7256179660       -2.9576763444       -4.0512984156
