  12

 N          1.0961521868        0.2989368030        0.2313058764
 C          2.5519196724        0.2592116064        0.0910672205
 C          3.0899498513       -1.0351514826        0.6811344436
 Cl        -0.1061155687       -1.9814464031       -1.1647136834
 H          0.7088770110        1.1502125222       -0.1594707797
 H          0.8281312989        0.2332917141        1.2080010256
 H          0.4683486989       -0.9184685758       -0.5098772118
 H          3.0341796150        1.1195084418        0.5772159987
 H          2.7771899247        0.3009061306       -0.9767941117
 H          2.8843174976       -1.0829166375        1.7486877151
 H          4.1644535720       -1.0963541441        0.5326087978
 H          2.6165662400       -1.8848599750        0.1976647089
