 xtb: 6.5.1 (fef0646)
          01242317083D

 18 16  0     0  0            999 V2000
   -1.6368    1.5962    0.6288 N   0  0  0  0  0  0  0  0  0  0  0  0
   -0.2193    2.0416    0.7358 C   0  0  0  0  0  0  0  0  0  0  0  0
    0.5381    1.9423   -0.5850 C   0  0  0  0  0  0  0  0  0  0  0  0
    0.7225    0.5079   -1.0708 C   0  0  0  0  0  0  0  0  0  0  0  0
    1.5252   -0.3122   -0.0984 C   0  0  0  0  0  0  0  0  0  0  0  0
    2.8508   -0.4106   -0.3489 O   0  0  0  0  0  0  0  0  0  0  0  0
    0.9832   -0.8191    0.8598 O   0  0  0  0  0  0  0  0  0  0  0  0
   -1.9506   -1.8742   -0.1242 Cl  0  0  0  0  0  0  0  0  0  0  0  0
   -1.6887    0.5912    0.3946 H   0  0  0  0  0  0  0  0  0  0  0  0
   -2.1318    2.1157   -0.1068 H   0  0  0  0  0  0  0  0  0  0  0  0
   -2.1458    1.7313    1.5118 H   0  0  0  0  0  0  0  0  0  0  0  0
    0.2896    1.4376    1.4964 H   0  0  0  0  0  0  0  0  0  0  0  0
   -0.1947    3.0732    1.1077 H   0  0  0  0  0  0  0  0  0  0  0  0
    1.5260    2.4069   -0.4809 H   0  0  0  0  0  0  0  0  0  0  0  0
    0.0136    2.5311   -1.3458 H   0  0  0  0  0  0  0  0  0  0  0  0
    1.2295    0.4892   -2.0409 H   0  0  0  0  0  0  0  0  0  0  0  0
   -0.2466    0.0270   -1.2243 H   0  0  0  0  0  0  0  0  0  0  0  0
    3.2613   -0.9466    0.3441 H   0  0  0  0  0  0  0  0  0  0  0  0
  1  2  1  0  0  0  0
  2  3  1  0  0  0  0
  3  4  1  0  0  0  0
  4  5  1  0  0  0  0
  5  6  1  0  0  0  0
  5  7  2  0  0  0  0
  1  9  1  0  0  0  0
  1 10  1  0  0  0  0
  1 11  1  0  0  0  0
  2 12  1  0  0  0  0
  2 13  1  0  0  0  0
  3 14  1  0  0  0  0
  3 15  1  0  0  0  0
  4 16  1  0  0  0  0
  4 17  1  0  0  0  0
  6 18  1  0  0  0  0
M  END
