21

N          2.80167        3.78679       -0.92965
C          2.33492        2.72998        0.00871
C          2.92662        1.36972       -0.36972
C          4.43765        1.36019       -0.37283
C          5.15856        1.63035        0.80272
C          6.55398        1.64207        0.78725
C          7.23105        1.36843       -0.39366
F          8.56897        1.38058       -0.40572
C          6.53756        1.07817       -1.56168
C          5.14120        1.07110       -1.55313
H          2.43749        4.71140       -0.66618
H          2.50973        3.59906       -1.89697
H          3.83082        3.85229       -0.92801
H          1.24221        2.71507       -0.04987
H          2.63447        3.04998        1.01127
H          2.54854        1.07777       -1.35808
H          2.57266        0.60548        0.33279
H          4.65165        1.81350        1.74876
H          7.12181        1.84535        1.69159
H          7.09274        0.84363       -2.46602
H          4.61935        0.81460       -2.47386
