 xtb: 6.5.1 (fef0646)
          01242315473D

 21 21  0     0  0            999 V2000
    2.7090    3.7315   -1.1109 N   0  0  0  0  0  0  0  0  0  0  0  0
    2.4033    2.8003    0.0025 C   0  0  0  0  0  0  0  0  0  0  0  0
    2.9539    1.4086   -0.3035 C   0  0  0  0  0  0  0  0  0  0  0  0
    4.4604    1.3853   -0.3285 C   0  0  0  0  0  0  0  0  0  0  0  0
    5.1781    1.5051    0.8578 C   0  0  0  0  0  0  0  0  0  0  0  0
    6.5607    1.4801    0.8571 C   0  0  0  0  0  0  0  0  0  0  0  0
    7.2154    1.3309   -0.3512 C   0  0  0  0  0  0  0  0  0  0  0  0
    8.5824    1.2938   -0.3607 F   0  0  0  0  0  0  0  0  0  0  0  0
    6.5372    1.2131   -1.5477 C   0  0  0  0  0  0  0  0  0  0  0  0
    5.1526    1.2455   -1.5257 C   0  0  0  0  0  0  0  0  0  0  0  0
    2.3675    4.6761   -0.9004 H   0  0  0  0  0  0  0  0  0  0  0  0
    2.2663    3.4067   -1.9790 H   0  0  0  0  0  0  0  0  0  0  0  0
    3.7239    3.7713   -1.2631 H   0  0  0  0  0  0  0  0  0  0  0  0
    1.3237    2.7447    0.1353 H   0  0  0  0  0  0  0  0  0  0  0  0
    2.8522    3.1824    0.9189 H   0  0  0  0  0  0  0  0  0  0  0  0
    2.5656    1.0525   -1.2570 H   0  0  0  0  0  0  0  0  0  0  0  0
    2.6055    0.7257    0.4708 H   0  0  0  0  0  0  0  0  0  0  0  0
    4.6579    1.6025    1.7979 H   0  0  0  0  0  0  0  0  0  0  0  0
    7.1314    1.5619    1.7681 H   0  0  0  0  0  0  0  0  0  0  0  0
    7.0882    1.0923   -2.4664 H   0  0  0  0  0  0  0  0  0  0  0  0
    4.6183    1.1350   -2.4566 H   0  0  0  0  0  0  0  0  0  0  0  0
  1  2  1  0  0  0  0
  2  3  1  0  0  0  0
  3  4  1  0  0  0  0
  4  5  4  0  0  0  0
  5  6  4  0  0  0  0
  6  7  4  0  0  0  0
  7  8  1  0  0  0  0
  7  9  4  0  0  0  0
  4 10  4  0  0  0  0
  9 10  4  0  0  0  0
  1 11  1  0  0  0  0
  1 12  1  0  0  0  0
  1 13  1  0  0  0  0
  2 14  1  0  0  0  0
  2 15  1  0  0  0  0
  3 16  1  0  0  0  0
  3 17  1  0  0  0  0
  5 18  1  0  0  0  0
  6 19  1  0  0  0  0
  9 20  1  0  0  0  0
 10 21  1  0  0  0  0
M  CHG  1   1   1
M  END
