49
 xtb: 6.5.1 (fef0646)
N           -6.24335952017101        3.31295550407272       -1.37415024264892
C           -7.26414805290569        2.25360733018168       -1.63220287221077
C           -7.58914795276593        1.42229190616429       -0.38835979627565
C           -6.48915470631067        0.50195516169953        0.01733419572595
C           -6.63842225320887       -0.69657494023442        0.64665734699918
C           -5.42088662521004       -1.36754800638487        0.91648873927201
C           -4.30379311393702       -0.68871092910603        0.49878797714124
C           -2.94214394195278       -1.10431214787914        0.63183649006718
C           -2.47988018342092       -2.27299455280893        1.19130831758069
C           -1.07584007907006       -2.41956892775902        1.20215611271388
C           -0.45163711612151       -3.65280937771461        1.75792337888899
C           -0.40362697913068       -1.32962339110338        0.65449547711105
C            1.00363776194660       -1.05751733531905        0.50580025722758
C            2.01258282796442       -1.88619512379434        1.00626559784999
C            3.35553395983665       -1.60516816028375        0.85023667482750
C            3.82257172305735       -0.47790593691464        0.17318496423660
C            5.24958424290546       -0.24777995961519        0.05009959670703
C            5.95130388773503        0.39597591195911       -0.95131559794465
C            5.36076605820779        0.95420615593139       -2.19857419583148
C            7.34976228468041        0.45160321158310       -0.69898871657481
C            7.73316469532902       -0.15804280544581        0.44676167759205
S            6.37309980217097       -0.84027625894194        1.24827059962753
C            2.83782959285843        0.42747687855198       -0.32253210502765
N            3.05099485839452        1.60902261767453       -0.90188524379389
S            1.60591943813079        2.27426135392956       -1.26035048281046
N            0.65437724886083        1.09650892215039       -0.66060023572249
C            1.43251050656986        0.13606555187231       -0.15921728991819
S           -1.58166201332162       -0.18369681540395        0.08554796606015
S           -4.80330045268857        0.79233655873617       -0.26749664855675
H           -5.98724063438005        3.80335787871381       -2.24613505673607
H           -5.39160696408669        2.87434770850908       -1.00218456791994
H           -6.57216465170227        3.99789534334798       -0.69855251447075
H           -6.94045340824031        1.59513081282506       -2.43113071904878
H           -8.18750754936124        2.74304708686984       -2.00000766232304
H           -8.49921172274787        0.83541189958711       -0.54425391078311
H           -7.80940146660402        2.08811698400340        0.45852750510542
H           -7.60470169675696       -1.11825180976284        0.87435761199149
H           -5.37797509885876       -2.34684278744284        1.36676316261521
H           -3.14004784242268       -3.03383379552322        1.57276413613751
H            0.08582873144936       -3.45283914618066        2.66597369291338
H            0.23025855789853       -4.10752114341038        1.01680545276581
H           -1.21012446647716       -4.40758432129614        1.96846354149797
H            1.74375737832745       -2.76061073912089        1.56784247359292
H            4.08383645991516       -2.27802940034453        1.27117445108130
H            5.05538898960417        1.96325625776607       -2.07506781335152
H            4.47024747671478        0.35491103209758       -2.49992100143098
H            6.06440664194276        0.87870291442730       -3.03607764410280
H            8.03774391283577        0.91259179833736       -1.39324285946863
H            8.74082447137443       -0.21819815190094        0.80686046866386
