 xtb: 6.5.1 (fef0646)
          02032319453D

 49 53  0     0  0            999 V2000
   -6.2402    3.3039   -1.3865 N   0  0  0  0  0  0  0  0  0  0  0  0
   -7.2817    2.2616   -1.6247 C   0  0  0  0  0  0  0  0  0  0  0  0
   -7.5887    1.4244   -0.3803 C   0  0  0  0  0  0  0  0  0  0  0  0
   -6.4888    0.4984    0.0093 C   0  0  0  0  0  0  0  0  0  0  0  0
   -6.6394   -0.7151    0.6083 C   0  0  0  0  0  0  0  0  0  0  0  0
   -5.4219   -1.3853    0.8798 C   0  0  0  0  0  0  0  0  0  0  0  0
   -4.3037   -0.6911    0.4930 C   0  0  0  0  0  0  0  0  0  0  0  0
   -2.9418   -1.1036    0.6319 C   0  0  0  0  0  0  0  0  0  0  0  0
   -2.4796   -2.2787    1.1775 C   0  0  0  0  0  0  0  0  0  0  0  0
   -1.0753   -2.4231    1.1913 C   0  0  0  0  0  0  0  0  0  0  0  0
   -0.4503   -3.6620    1.7330 C   0  0  0  0  0  0  0  0  0  0  0  0
   -0.4034   -1.3256    0.6591 C   0  0  0  0  0  0  0  0  0  0  0  0
    1.0040   -1.0520    0.5143 C   0  0  0  0  0  0  0  0  0  0  0  0
    2.0115   -1.8778    1.0221 C   0  0  0  0  0  0  0  0  0  0  0  0
    3.3549   -1.5994    0.8648 C   0  0  0  0  0  0  0  0  0  0  0  0
    3.8226   -0.4774    0.1799 C   0  0  0  0  0  0  0  0  0  0  0  0
    5.2496   -0.2502    0.0517 C   0  0  0  0  0  0  0  0  0  0  0  0
    5.9480    0.3754   -0.9628 C   0  0  0  0  0  0  0  0  0  0  0  0
    5.3509    0.9119   -2.2163 C   0  0  0  0  0  0  0  0  0  0  0  0
    7.3471    0.4361   -0.7152 C   0  0  0  0  0  0  0  0  0  0  0  0
    7.7332   -0.1502    0.4416 C   0  0  0  0  0  0  0  0  0  0  0  0
    6.3770   -0.8035    1.2651 S   0  0  0  0  0  0  0  0  0  0  0  0
    2.8396    0.4273   -0.3199 C   0  0  0  0  0  0  0  0  0  0  0  0
    3.0553    1.6062   -0.9035 N   0  0  0  0  0  0  0  0  0  0  0  0
    1.6138    2.2725   -1.2646 S   0  0  0  0  0  0  0  0  0  0  0  0
    0.6575    1.0991   -0.6593 N   0  0  0  0  0  0  0  0  0  0  0  0
    1.4339    0.1388   -0.1551 C   0  0  0  0  0  0  0  0  0  0  0  0
   -1.5809   -0.1672    0.1144 S   0  0  0  0  0  0  0  0  0  0  0  0
   -4.8005    0.8172   -0.2168 S   0  0  0  0  0  0  0  0  0  0  0  0
   -6.0155    3.8247   -2.2427 H   0  0  0  0  0  0  0  0  0  0  0  0
   -5.3787    2.8650   -1.0454 H   0  0  0  0  0  0  0  0  0  0  0  0
   -6.5498    3.9752   -0.6734 H   0  0  0  0  0  0  0  0  0  0  0  0
   -6.9546    1.5988   -2.4338 H   0  0  0  0  0  0  0  0  0  0  0  0
   -8.1936    2.7500   -1.9889 H   0  0  0  0  0  0  0  0  0  0  0  0
   -8.5003    0.8371   -0.5391 H   0  0  0  0  0  0  0  0  0  0  0  0
   -7.8053    2.0883    0.4623 H   0  0  0  0  0  0  0  0  0  0  0  0
   -7.6053   -1.1269    0.8566 H   0  0  0  0  0  0  0  0  0  0  0  0
   -5.3785   -2.3549    1.3501 H   0  0  0  0  0  0  0  0  0  0  0  0
   -3.1400   -3.0372    1.5655 H   0  0  0  0  0  0  0  0  0  0  0  0
    0.0821   -3.4592    2.6620 H   0  0  0  0  0  0  0  0  0  0  0  0
    0.2344   -4.1052    1.0101 H   0  0  0  0  0  0  0  0  0  0  0  0
   -1.2092   -4.4128    1.9547 H   0  0  0  0  0  0  0  0  0  0  0  0
    1.7429   -2.7565    1.5749 H   0  0  0  0  0  0  0  0  0  0  0  0
    4.0835   -2.2755    1.2770 H   0  0  0  0  0  0  0  0  0  0  0  0
    5.0523    1.9515   -2.0846 H   0  0  0  0  0  0  0  0  0  0  0  0
    4.4672    0.3410   -2.5011 H   0  0  0  0  0  0  0  0  0  0  0  0
    6.0603    0.8629   -3.0420 H   0  0  0  0  0  0  0  0  0  0  0  0
    8.0365    0.9046   -1.4008 H   0  0  0  0  0  0  0  0  0  0  0  0
    8.7410   -0.2129    0.8055 H   0  0  0  0  0  0  0  0  0  0  0  0
  1  2  1  0  0  0  0
  2  3  1  0  0  0  0
  3  4  1  0  0  0  0
  4  5  2  0  0  0  0
  5  6  4  0  0  0  0
  6  7  2  0  0  0  0
  7  8  1  0  0  0  0
  8  9  4  0  0  0  0
  9 10  4  0  0  0  0
 10 11  1  0  0  0  0
 10 12  4  0  0  0  0
 12 13  1  0  0  0  0
 13 14  4  0  0  0  0
 14 15  4  0  0  0  0
 15 16  4  0  0  0  0
 16 17  1  0  0  0  0
 17 18  4  0  0  0  0
 18 19  1  0  0  0  0
 18 20  4  0  0  0  0
 20 21  2  0  0  0  0
 17 22  1  0  0  0  0
 21 22  1  0  0  0  0
 16 23  1  0  0  0  0
 23 24  4  0  0  0  0
 24 25  2  0  0  0  0
 25 26  2  0  0  0  0
 13 27  1  0  0  0  0
 23 27  1  0  0  0  0
 26 27  4  0  0  0  0
  8 28  1  0  0  0  0
 12 28  1  0  0  0  0
  4 29  1  0  0  0  0
  7 29  1  0  0  0  0
  1 30  1  0  0  0  0
  1 31  1  0  0  0  0
  1 32  1  0  0  0  0
  2 33  1  0  0  0  0
  2 34  1  0  0  0  0
  3 35  1  0  0  0  0
  3 36  1  0  0  0  0
  5 37  1  0  0  0  0
  6 38  1  0  0  0  0
  9 39  1  0  0  0  0
 11 40  1  0  0  0  0
 11 41  1  0  0  0  0
 11 42  1  0  0  0  0
 14 43  1  0  0  0  0
 15 44  1  0  0  0  0
 19 45  1  0  0  0  0
 19 46  1  0  0  0  0
 19 47  1  0  0  0  0
 20 48  1  0  0  0  0
 21 49  1  0  0  0  0
M  CHG  1   1   1
M  END
