 xtb: 6.5.1 (fef0646)
          01232319483D

 25 25  0     0  0            999 V2000
    3.1807    1.0043    0.3481 N   0  0  0  0  0  0  0  0  0  0  0  0
    2.5183   -0.3211    0.1890 C   0  0  0  0  0  0  0  0  0  0  0  0
    2.9818   -0.9050   -1.1506 C   0  0  0  0  0  0  0  0  0  0  0  0
    4.4904   -0.8980   -1.1810 C   0  0  0  0  0  0  0  0  0  0  0  0
    5.1654    0.1549   -1.6555 C   0  0  0  0  0  0  0  0  0  0  0  0
    6.6592    0.2538   -1.6732 C   0  0  0  0  0  0  0  0  0  0  0  0
    7.3242   -1.0819   -1.3512 C   0  0  0  0  0  0  0  0  0  0  0  0
    6.6196   -1.7496   -0.1762 C   0  0  0  0  0  0  0  0  0  0  0  0
    5.1797   -2.0771   -0.5645 C   0  0  0  0  0  0  0  0  0  0  0  0
    3.2882    1.2862    1.3261 H   0  0  0  0  0  0  0  0  0  0  0  0
    2.6699    1.7377   -0.1535 H   0  0  0  0  0  0  0  0  0  0  0  0
    4.1299    0.8639   -0.1277 H   0  0  0  0  0  0  0  0  0  0  0  0
    1.4353   -0.2135    0.2273 H   0  0  0  0  0  0  0  0  0  0  0  0
    2.8384   -0.9667    1.0073 H   0  0  0  0  0  0  0  0  0  0  0  0
    2.5749   -0.3133   -1.9718 H   0  0  0  0  0  0  0  0  0  0  0  0
    2.6025   -1.9207   -1.2463 H   0  0  0  0  0  0  0  0  0  0  0  0
    4.6445    0.9628   -2.1600 H   0  0  0  0  0  0  0  0  0  0  0  0
    6.9743    1.0138   -0.9494 H   0  0  0  0  0  0  0  0  0  0  0  0
    6.9813    0.6076   -2.6540 H   0  0  0  0  0  0  0  0  0  0  0  0
    8.3776   -0.9236   -1.1236 H   0  0  0  0  0  0  0  0  0  0  0  0
    7.2638   -1.7363   -2.2214 H   0  0  0  0  0  0  0  0  0  0  0  0
    6.6315   -1.0798    0.6873 H   0  0  0  0  0  0  0  0  0  0  0  0
    7.1401   -2.6637    0.1059 H   0  0  0  0  0  0  0  0  0  0  0  0
    4.6205   -2.4359    0.3028 H   0  0  0  0  0  0  0  0  0  0  0  0
    5.1785   -2.8898   -1.2964 H   0  0  0  0  0  0  0  0  0  0  0  0
  1  2  1  0  0  0  0
  2  3  1  0  0  0  0
  3  4  1  0  0  0  0
  4  5  2  0  0  0  0
  5  6  1  0  0  0  0
  6  7  1  0  0  0  0
  7  8  1  0  0  0  0
  4  9  1  0  0  0  0
  8  9  1  0  0  0  0
  1 10  1  0  0  0  0
  1 11  1  0  0  0  0
  1 12  1  0  0  0  0
  2 13  1  0  0  0  0
  2 14  1  0  0  0  0
  3 15  1  0  0  0  0
  3 16  1  0  0  0  0
  5 17  1  0  0  0  0
  6 18  1  0  0  0  0
  6 19  1  0  0  0  0
  7 20  1  0  0  0  0
  7 21  1  0  0  0  0
  8 22  1  0  0  0  0
  8 23  1  0  0  0  0
  9 24  1  0  0  0  0
  9 25  1  0  0  0  0
M  CHG  1   1   1
M  END
