26
 xtb: 6.5.1 (fef0646)
N           -1.19919423646316        0.93992482038655        0.47401427901472
C           -1.04006173112744        0.90677712719043       -1.00517867586314
C            0.37221360740446        1.32215818533560       -1.40275105848094
C            1.41375362707195        0.41566806164785       -0.81179373589781
C            1.95347330164309        0.69838166470813        0.37300071282814
C            2.96846782675701       -0.15753727505347        1.06653130385126
C            3.59925731621552       -1.20795196640506        0.13732334376571
C            2.53346230243737       -1.87128854261534       -0.74362080395332
C            1.78044903698364       -0.82522829021917       -1.58284899541431
Cl          -4.73556827736618       -0.14574870109696        1.33433654360006
H           -1.12116040935953        1.85370064421961        0.86392048062472
H           -0.61342339287415        0.26971499970841        0.95239226315597
H           -2.22981676952488        0.61515485119225        0.74068216637817
H           -1.81349357047873        1.53319190891610       -1.47909282605657
H           -1.26780168226743       -0.12404343348696       -1.37527059099442
H            0.52007426265397        2.34176435190098       -1.03756792378412
H            0.45510382693220        1.34356035295126       -2.46773708407981
H            1.62987425401222        1.59882315676227        0.88236586984788
H            2.49514683412385       -0.66711513896366        1.91640357873946
H            3.74697409992733        0.48235848655958        1.50460809624722
H            4.15160094764788       -1.95755263003391        0.70873717218099
H            4.34367252894385       -0.71742940618879       -0.50848967798615
H            1.82168557102909       -2.41052978833353       -0.10642083937185
H            2.98186928317967       -2.62962342175774       -1.39572949767042
H            0.85919552927257       -1.26310441194089       -2.00548369292901
H            2.37889088684568       -0.51910750027040       -2.43742558463271
