19
0.0
N           -0.15556  -1.37686   1.12978
C           -0.95384  -1.83933  -0.03529
C           -1.23796  -0.72398  -1.03895
C           -2.15727   0.38152  -0.48442
C           -1.42421   1.65866  -0.08389
O           -0.43944   1.47004   0.91285
Cl           2.57116   0.16783  -0.29517
H            0.76389  -1.02496   0.81537
H            0.00967  -2.12505   1.82096
H           -0.63073  -0.58964   1.61422
H           -1.90049  -2.26608   0.31696
H           -0.42475  -2.66739  -0.52576
H           -1.68176  -1.15989  -1.94512
H           -0.29289  -0.28114  -1.37556
H           -2.70201  -0.00647   0.38443
H           -2.93630   0.63047  -1.21818
H           -2.13116   2.39666   0.31600
H           -0.95948   2.13221  -0.95808
H            0.38222   1.09085   0.52059
