27
 xtb: 6.5.1 (fef0646)
N           -4.82874491954807        0.77167118632314       -0.48245878392932
C           -3.35670011545411        0.56865548784716       -0.66871186434320
C           -2.68065964468156       -0.00234970615208        0.58048087213805
C           -1.22100309581777       -0.28402059652202        0.37481330424874
C           -0.28741298765671        0.73945939442856        0.44585175189583
C            1.08084809292201        0.49783196954367        0.22741716088856
C            2.04462955955145        1.52102859174708        0.29187757508499
C            3.37835557829777        1.24506954479520        0.07245092043745
C            3.79376786314119       -0.04940725813042       -0.20843126095570
C            2.87686919811085       -1.07660313010025       -0.28810524292945
C            1.50800181236627       -0.83206311347538       -0.07514951860597
C            0.54394500797774       -1.85211274963040       -0.14628283620034
C           -0.78945365115937       -1.57593104046960        0.07390417332178
H           -5.25102706404837        1.15655509585820       -1.34076621179850
H           -4.96923400828881        1.44989371235530        0.28209897072685
H           -5.32554625783536       -0.09341375778227       -0.23638504503413
H           -2.87384655398226        1.40451681761585       -1.05546009897440
H           -3.24413894514827       -0.25014190534985       -1.47375675007298
H           -3.17706754781572       -0.87042699341361        0.97295651241157
H           -2.78697072991107        0.77700509601106        1.37585267697136
H           -0.60064042339736        1.74576440292909        0.69884162724807
H            1.74598686246255        2.51979102199159        0.55627565840216
H            4.11756354765060        2.02716658524502        0.15310881084949
H            4.83726474588580       -0.25738623973673       -0.39128711734222
H            3.19188705689266       -2.07401690140117       -0.54647529878352
H            0.84074742545893       -2.84265356746644       -0.40991711000358
H           -1.52926920531697       -2.34540683913216       -0.01255259442057
