 xtb: 6.5.1 (fef0646)
          01242316593D

 27 28  0     0  0            999 V2000
   -4.8234    0.7739   -0.4852 N   0  0  0  0  0  0  0  0  0  0  0  0
   -3.3752    0.4724   -0.6895 C   0  0  0  0  0  0  0  0  0  0  0  0
   -2.6753    0.0345    0.5923 C   0  0  0  0  0  0  0  0  0  0  0  0
   -1.2193   -0.2635    0.3856 C   0  0  0  0  0  0  0  0  0  0  0  0
   -0.2771    0.7501    0.4700 C   0  0  0  0  0  0  0  0  0  0  0  0
    1.0883    0.5012    0.2434 C   0  0  0  0  0  0  0  0  0  0  0  0
    2.0595    1.5152    0.3278 C   0  0  0  0  0  0  0  0  0  0  0  0
    3.3903    1.2344    0.0974 C   0  0  0  0  0  0  0  0  0  0  0  0
    3.7930   -0.0545   -0.2216 C   0  0  0  0  0  0  0  0  0  0  0  0
    2.8690   -1.0743   -0.3137 C   0  0  0  0  0  0  0  0  0  0  0  0
    1.5034   -0.8256   -0.0860 C   0  0  0  0  0  0  0  0  0  0  0  0
    0.5298   -1.8356   -0.1740 C   0  0  0  0  0  0  0  0  0  0  0  0
   -0.8008   -1.5525    0.0549 C   0  0  0  0  0  0  0  0  0  0  0  0
   -5.2734    1.0616   -1.3608 H   0  0  0  0  0  0  0  0  0  0  0  0
   -4.9428    1.5299    0.1969 H   0  0  0  0  0  0  0  0  0  0  0  0
   -5.3174   -0.0511   -0.1298 H   0  0  0  0  0  0  0  0  0  0  0  0
   -2.8719    1.3550   -1.0997 H   0  0  0  0  0  0  0  0  0  0  0  0
   -3.2674   -0.3078   -1.4515 H   0  0  0  0  0  0  0  0  0  0  0  0
   -3.1732   -0.8483    1.0044 H   0  0  0  0  0  0  0  0  0  0  0  0
   -2.7824    0.8095    1.3573 H   0  0  0  0  0  0  0  0  0  0  0  0
   -0.5948    1.7482    0.7121 H   0  0  0  0  0  0  0  0  0  0  0  0
    1.7528    2.5168    0.5751 H   0  0  0  0  0  0  0  0  0  0  0  0
    4.1229    2.0218    0.1655 H   0  0  0  0  0  0  0  0  0  0  0  0
    4.8362   -0.2597   -0.3991 H   0  0  0  0  0  0  0  0  0  0  0  0
    3.1872   -2.0721   -0.5619 H   0  0  0  0  0  0  0  0  0  0  0  0
    0.8338   -2.8369   -0.4254 H   0  0  0  0  0  0  0  0  0  0  0  0
   -1.5348   -2.3361   -0.0229 H   0  0  0  0  0  0  0  0  0  0  0  0
  1  2  1  0  0  0  0
  2  3  1  0  0  0  0
  3  4  1  0  0  0  0
  4  5  4  0  0  0  0
  5  6  4  0  0  0  0
  6  7  4  0  0  0  0
  7  8  2  0  0  0  0
  8  9  4  0  0  0  0
  9 10  2  0  0  0  0
  6 11  4  0  0  0  0
 10 11  4  0  0  0  0
 11 12  4  0  0  0  0
  4 13  4  0  0  0  0
 12 13  2  0  0  0  0
  1 14  1  0  0  0  0
  1 15  1  0  0  0  0
  1 16  1  0  0  0  0
  2 17  1  0  0  0  0
  2 18  1  0  0  0  0
  3 19  1  0  0  0  0
  3 20  1  0  0  0  0
  5 21  1  0  0  0  0
  7 22  1  0  0  0  0
  8 23  1  0  0  0  0
  9 24  1  0  0  0  0
 10 25  1  0  0  0  0
 12 26  1  0  0  0  0
 13 27  1  0  0  0  0
M  CHG  1   1   1
M  END
