21
2.799
N           -1.03455  -0.99766   0.59992
C            0.16798  -0.55942  -0.16777
C            1.39852  -1.40195   0.15398
C            2.66897  -0.97480  -0.60527
C            3.53536   0.05697   0.12842
C            2.85448   1.39692   0.36430
Cl          -3.79056   1.02749  -0.24705
H           -1.86592  -0.42296   0.37369
H           -0.86976  -0.92543   1.61300
H           -1.26581  -1.97888   0.39398
H            0.36383   0.49871   0.03277
H           -0.04222  -0.61069  -1.24290
H            1.16127  -2.45067  -0.06719
H            1.59043  -1.38251   1.23295
H            2.38644  -0.58484  -1.59053
H            3.28178  -1.86137  -0.82021
H            4.46396   0.21733  -0.43718
H            3.86173  -0.36511   1.08803
H            3.54117   2.13531   0.78486
H            2.02202   1.30647   1.06348
H            2.46135   1.81079  -0.56611
