21
 xtb: 6.5.1 (fef0646)
N           -0.96009302450132       -1.08125728407193        0.64520978726280
C            0.20737112288512       -0.59830091856609       -0.14990893642018
C            1.45063725388592       -1.42669412016668        0.14973964637180
C            2.70813203840310       -0.97498766945630       -0.61404177520071
C            3.55945060026427        0.06549104104826        0.12431797892171
C            2.86166827341463        1.39612831901012        0.36477858904829
Cl          -3.95895514656493        1.13031043986128       -0.28332040220738
H           -1.84617513341207       -0.45262544794290        0.39294341527500
H           -0.84325425500520       -0.94940754423675        1.62444832059956
H           -1.24004519606144       -2.00261298527531        0.40466479633222
H            0.37079690983545        0.48791673660779        0.03973574333837
H           -0.03620990683013       -0.62043647307005       -1.23670246032496
H            1.17957480318541       -2.45801321155687       -0.07104527176483
H            1.60816228202746       -1.39218926294147        1.23133832410372
H            2.39451736140053       -0.58445156206499       -1.59190726130731
H            3.29687918489258       -1.85822355009818       -0.82514867260265
H            4.47044111822701        0.22390391000931       -0.43798093209032
H            3.87016832467996       -0.36258393223678        1.08636051283764
H            3.54116049766021        2.13734751132633        0.78437263657036
H            2.02544517145608        1.30326306203127        1.06483449993729
H            2.46088137137521        1.80953167889098       -0.56532117591852
