15

N          1.02276        0.08489       -0.02848
C          2.50846        0.08373       -0.02750
C          3.02387        0.79955       -1.27332
C          4.52157        0.81324       -1.31557
C          5.23551        0.25982       -2.30452
H          0.65474       -0.39496        0.80378
H          0.64496       -0.40081       -0.85323
H          0.64292        1.04072       -0.02545
H          2.82269       -0.96418        0.00217
H          2.82346        0.58511        0.89304
H          2.66184        1.83479       -1.28843
H          2.61869        0.31126       -2.16897
H          5.05535        1.31903       -0.51218
H          4.76928       -0.23869       -3.15064
H          6.32160        0.30473       -2.30336
