22
0.0
N           -3.48617  -0.21900   0.80945
C           -2.77912  -0.12293  -0.49901
C           -1.29697   0.00099  -0.34126
C           -0.69840   1.25353  -0.19580
C            0.66353   1.37278  -0.02709
C            1.49690   0.23286   0.01001
C            2.90801   0.39026   0.18347
C            3.81395  -0.60848   0.23217
C            0.87732  -1.02937  -0.12771
C           -0.48655  -1.13500  -0.29568
H           -4.50685  -0.30661   0.68998
H           -3.30913   0.61587   1.38702
H           -3.16222  -1.03761   1.34513
H           -3.16143   0.73639  -1.06249
H           -3.01144  -1.00389  -1.10896
H           -1.31596   2.13653  -0.22058
H            1.10703   2.34955   0.07735
H            3.26872   1.40262   0.28191
H            3.53238  -1.63801   0.13891
H            4.86065  -0.40732   0.36504
H            1.47615  -1.92350  -0.10206
H           -0.94091  -2.10678  -0.39749
