15
 xtb: 6.5.1 (fef0646)
N            0.23271029796126       -0.88684493097078       -0.03456243637731
C            1.05554302321999        0.35665616714985        0.00402521468695
C            2.55854279779679        0.09203354276060       -0.01325817461238
C            3.38117746749728        1.37209146909515        0.02691273280898
Cl          -2.89676179481770       -0.33926511143712        0.00805754338384
H            0.52987581479771       -1.46127851467780       -0.88815710508644
H           -0.71638237059571       -0.74818382703556       -0.02387747404357
H            0.54035645530767       -1.51970172388667        0.77194721515729
H            0.82591574965539        0.92056708958431        0.89773118695872
H            0.81655705522545        0.98114154276026       -0.84574463955958
H            2.86382235809989       -0.48153704741560       -0.90589533446667
H            2.87306116862964       -0.54206526674971        0.83385836981707
H            3.18642300317684        1.96845547269991        0.92802568086712
H            3.17687464742639        2.02977842594986       -0.82822777815087
H            4.48563042027221        1.20420632072615        0.01499972771514
