26
2.487
N            2.24795  -1.49852   0.30505
C            1.13213  -2.48638   0.35465
C           -0.01621  -2.03152   1.25346
C           -0.65072  -0.74529   0.80837
C           -0.28896   0.40609   1.36793
C           -0.85744   1.74243   1.00220
C           -2.15142   1.63747   0.17820
C           -2.03111   0.55143  -0.89851
C           -1.69295  -0.81409  -0.27721
Cl           1.47033   1.38090  -1.56188
H            3.05295  -1.85239  -0.23191
H            2.57781  -1.26793   1.25275
H            1.94328  -0.61615  -0.14193
H            1.51759  -3.45446   0.69882
H            0.75975  -2.66481  -0.66071
H            0.34680  -1.91707   2.28112
H           -0.78883  -2.80808   1.30595
H            0.45764   0.37857   2.14539
H           -0.10782   2.30393   0.42980
H           -1.03284   2.33210   1.91229
H           -2.40554   2.60596  -0.27431
H           -2.98962   1.39656   0.84361
H           -1.24529   0.83280  -1.61032
H           -2.95382   0.49086  -1.49203
H           -1.35375  -1.51146  -1.05339
H           -2.60196  -1.26327   0.14092
