26
 xtb: 6.5.1 (fef0646)
N            2.22020481923276       -1.38791958697956        0.22352165072849
C            1.15215863088277       -2.43348794472908        0.32357713760197
C           -0.00241149813018       -2.01753204527698        1.23399740910844
C           -0.65579275845999       -0.73601953472911        0.80653092338707
C           -0.29927927231570        0.41306941361372        1.37266539957946
C           -0.87651954398570        1.74911338121053        1.01752302290745
C           -2.16600321052862        1.64141909815738        0.18634705071978
C           -2.04192059715215        0.55993982809199       -0.89486095146842
C           -1.69662755244255       -0.80620762157048       -0.27961802523446
Cl           1.50933975250673        1.22257352516446       -1.48315018801665
H            3.05843107883398       -1.83186520217207       -0.22822309068164
H            2.55163411974341       -1.20498901416565        1.22891164667666
H            1.93852372457679       -0.59824475612725       -0.20100155375821
H            1.53748397463951       -3.43205736575071        0.69405181048851
H            0.76274309582248       -2.66126054472940       -0.66676395477570
H            0.35124529144520       -1.91494672381308        2.27551357624188
H           -0.78060462947043       -2.80835495399362        1.29770852753187
H            0.45505317877986        0.38028770071949        2.14624685275044
H           -0.11380553535374        2.31057396265581        0.43855780391642
H           -1.04210452980727        2.33027893550500        1.91853930328077
H           -2.41106569760005        2.60747779691265       -0.27052436889647
H           -2.99395408817992        1.39559272081227        0.84502486374406
H           -1.24959183397511        0.83658237627736       -1.60990447017785
H           -2.95743151125873        0.49309064128906       -1.49027482879767
H           -1.35315707340040       -1.50743147442678       -1.05484456229296
H           -2.60241790900629       -1.26305370919818        0.13922784687013
