 xtb: 6.5.1 (fef0646)
          01242317083D

 26 25  0     0  0            999 V2000
    2.2479   -1.4985    0.3050 N   0  0  0  0  0  0  0  0  0  0  0  0
    1.1321   -2.4864    0.3547 C   0  0  0  0  0  0  0  0  0  0  0  0
   -0.0162   -2.0315    1.2535 C   0  0  0  0  0  0  0  0  0  0  0  0
   -0.6507   -0.7453    0.8084 C   0  0  0  0  0  0  0  0  0  0  0  0
   -0.2890    0.4061    1.3679 C   0  0  0  0  0  0  0  0  0  0  0  0
   -0.8574    1.7424    1.0022 C   0  0  0  0  0  0  0  0  0  0  0  0
   -2.1514    1.6375    0.1782 C   0  0  0  0  0  0  0  0  0  0  0  0
   -2.0311    0.5514   -0.8985 C   0  0  0  0  0  0  0  0  0  0  0  0
   -1.6930   -0.8141   -0.2772 C   0  0  0  0  0  0  0  0  0  0  0  0
    1.4703    1.3809   -1.5619 Cl  0  0  0  0  0  0  0  0  0  0  0  0
    3.0529   -1.8524   -0.2319 H   0  0  0  0  0  0  0  0  0  0  0  0
    2.5778   -1.2679    1.2527 H   0  0  0  0  0  0  0  0  0  0  0  0
    1.9433   -0.6162   -0.1419 H   0  0  0  0  0  0  0  0  0  0  0  0
    1.5176   -3.4545    0.6988 H   0  0  0  0  0  0  0  0  0  0  0  0
    0.7597   -2.6648   -0.6607 H   0  0  0  0  0  0  0  0  0  0  0  0
    0.3468   -1.9171    2.2811 H   0  0  0  0  0  0  0  0  0  0  0  0
   -0.7888   -2.8081    1.3060 H   0  0  0  0  0  0  0  0  0  0  0  0
    0.4576    0.3786    2.1454 H   0  0  0  0  0  0  0  0  0  0  0  0
   -0.1078    2.3039    0.4298 H   0  0  0  0  0  0  0  0  0  0  0  0
   -1.0328    2.3321    1.9123 H   0  0  0  0  0  0  0  0  0  0  0  0
   -2.4055    2.6060   -0.2743 H   0  0  0  0  0  0  0  0  0  0  0  0
   -2.9896    1.3966    0.8436 H   0  0  0  0  0  0  0  0  0  0  0  0
   -1.2453    0.8328   -1.6103 H   0  0  0  0  0  0  0  0  0  0  0  0
   -2.9538    0.4909   -1.4920 H   0  0  0  0  0  0  0  0  0  0  0  0
   -1.3538   -1.5115   -1.0534 H   0  0  0  0  0  0  0  0  0  0  0  0
   -2.6020   -1.2633    0.1409 H   0  0  0  0  0  0  0  0  0  0  0  0
  1  2  1  0  0  0  0
  2  3  1  0  0  0  0
  3  4  1  0  0  0  0
  4  5  2  0  0  0  0
  5  6  1  0  0  0  0
  6  7  1  0  0  0  0
  7  8  1  0  0  0  0
  4  9  1  0  0  0  0
  8  9  1  0  0  0  0
  1 11  1  0  0  0  0
  1 12  1  0  0  0  0
  1 13  1  0  0  0  0
  2 14  1  0  0  0  0
  2 15  1  0  0  0  0
  3 16  1  0  0  0  0
  3 17  1  0  0  0  0
  5 18  1  0  0  0  0
  6 19  1  0  0  0  0
  6 20  1  0  0  0  0
  7 21  1  0  0  0  0
  7 22  1  0  0  0  0
  8 23  1  0  0  0  0
  8 24  1  0  0  0  0
  9 25  1  0  0  0  0
  9 26  1  0  0  0  0
M  END
