 xtb: 6.5.1 (fef0646)
          01242310083D

 45 48  0     0  0            999 V2000
   -7.9208   -1.4299   -1.3422 N   0  0  0  0  0  0  0  0  0  0  0  0
   -8.3670   -0.0706   -0.9250 C   0  0  0  0  0  0  0  0  0  0  0  0
   -7.7632    0.3414    0.4161 C   0  0  0  0  0  0  0  0  0  0  0  0
   -6.2941    0.5742    0.3401 C   0  0  0  0  0  0  0  0  0  0  0  0
   -5.6881    1.7941    0.2251 C   0  0  0  0  0  0  0  0  0  0  0  0
   -4.2808    1.7333    0.1743 C   0  0  0  0  0  0  0  0  0  0  0  0
   -3.7764    0.4536    0.2470 C   0  0  0  0  0  0  0  0  0  0  0  0
   -2.3983    0.0969    0.2265 C   0  0  0  0  0  0  0  0  0  0  0  0
   -1.8902   -1.1893    0.3131 C   0  0  0  0  0  0  0  0  0  0  0  0
   -0.4914   -1.2734    0.2688 C   0  0  0  0  0  0  0  0  0  0  0  0
    0.2332   -2.5704    0.3513 C   0  0  0  0  0  0  0  0  0  0  0  0
    0.1256   -0.0236    0.1418 C   0  0  0  0  0  0  0  0  0  0  0  0
    1.5135    0.2685    0.0613 C   0  0  0  0  0  0  0  0  0  0  0  0
    2.0435    1.5476   -0.0571 C   0  0  0  0  0  0  0  0  0  0  0  0
    3.4347    1.5885   -0.1231 C   0  0  0  0  0  0  0  0  0  0  0  0
    4.0477    0.3449   -0.0596 C   0  0  0  0  0  0  0  0  0  0  0  0
    5.4586    0.1369   -0.1118 C   0  0  0  0  0  0  0  0  0  0  0  0
    6.1564   -1.0623   -0.0564 C   0  0  0  0  0  0  0  0  0  0  0  0
    5.5304   -2.4059    0.0737 C   0  0  0  0  0  0  0  0  0  0  0  0
    7.5613   -0.8824   -0.1388 C   0  0  0  0  0  0  0  0  0  0  0  0
    7.9514    0.4145   -0.2546 C   0  0  0  0  0  0  0  0  0  0  0  0
    6.5913    1.4530   -0.2647 S   0  0  0  0  0  0  0  0  0  0  0  0
    2.8223   -0.8755    0.0893 S   0  0  0  0  0  0  0  0  0  0  0  0
   -1.0899    1.2179    0.0888 S   0  0  0  0  0  0  0  0  0  0  0  0
   -5.0977   -0.6734    0.3678 S   0  0  0  0  0  0  0  0  0  0  0  0
   -8.2083   -1.6616   -2.3062 H   0  0  0  0  0  0  0  0  0  0  0  0
   -8.3021   -2.1547   -0.7152 H   0  0  0  0  0  0  0  0  0  0  0  0
   -6.8938   -1.4898   -1.2853 H   0  0  0  0  0  0  0  0  0  0  0  0
   -9.4633   -0.0481   -0.8822 H   0  0  0  0  0  0  0  0  0  0  0  0
   -8.0816    0.6601   -1.6912 H   0  0  0  0  0  0  0  0  0  0  0  0
   -7.9608   -0.4368    1.1612 H   0  0  0  0  0  0  0  0  0  0  0  0
   -8.2498    1.2479    0.7955 H   0  0  0  0  0  0  0  0  0  0  0  0
   -6.2415    2.7205    0.1833 H   0  0  0  0  0  0  0  0  0  0  0  0
   -3.6488    2.6046    0.0914 H   0  0  0  0  0  0  0  0  0  0  0  0
   -2.5259   -2.0552    0.4094 H   0  0  0  0  0  0  0  0  0  0  0  0
    0.9055   -2.5836    1.2100 H   0  0  0  0  0  0  0  0  0  0  0  0
    0.8261   -2.7400   -0.5482 H   0  0  0  0  0  0  0  0  0  0  0  0
   -0.4608   -3.4047    0.4572 H   0  0  0  0  0  0  0  0  0  0  0  0
    1.4222    2.4293   -0.0952 H   0  0  0  0  0  0  0  0  0  0  0  0
    3.9965    2.5053   -0.2171 H   0  0  0  0  0  0  0  0  0  0  0  0
    4.8659   -2.6058   -0.7672 H   0  0  0  0  0  0  0  0  0  0  0  0
    4.9473   -2.4734    0.9928 H   0  0  0  0  0  0  0  0  0  0  0  0
    6.2855   -3.1926    0.0980 H   0  0  0  0  0  0  0  0  0  0  0  0
    8.2559   -1.7091   -0.1116 H   0  0  0  0  0  0  0  0  0  0  0  0
    8.9666    0.7584   -0.3306 H   0  0  0  0  0  0  0  0  0  0  0  0
  1  2  1  0  0  0  0
  2  3  1  0  0  0  0
  3  4  1  0  0  0  0
  4  5  2  0  0  0  0
  5  6  4  0  0  0  0
  6  7  4  0  0  0  0
  7  8  1  0  0  0  0
  8  9  4  0  0  0  0
  9 10  4  0  0  0  0
 10 11  1  0  0  0  0
 10 12  4  0  0  0  0
 12 13  4  0  0  0  0
 13 14  4  0  0  0  0
 14 15  4  0  0  0  0
 15 16  4  0  0  0  0
 16 17  1  0  0  0  0
 17 18  4  0  0  0  0
 18 19  1  0  0  0  0
 18 20  4  0  0  0  0
 20 21  2  0  0  0  0
 17 22  1  0  0  0  0
 21 22  1  0  0  0  0
 13 23  1  0  0  0  0
 16 23  1  0  0  0  0
  8 24  1  0  0  0  0
 12 24  1  0  0  0  0
  4 25  1  0  0  0  0
  7 25  1  0  0  0  0
  1 26  1  0  0  0  0
  1 27  1  0  0  0  0
  1 28  1  0  0  0  0
  2 29  1  0  0  0  0
  2 30  1  0  0  0  0
  3 31  1  0  0  0  0
  3 32  1  0  0  0  0
  5 33  1  0  0  0  0
  6 34  1  0  0  0  0
  9 35  1  0  0  0  0
 11 36  1  0  0  0  0
 11 37  1  0  0  0  0
 11 38  1  0  0  0  0
 14 39  1  0  0  0  0
 15 40  1  0  0  0  0
 19 41  1  0  0  0  0
 19 42  1  0  0  0  0
 19 43  1  0  0  0  0
 20 44  1  0  0  0  0
 21 45  1  0  0  0  0
M  CHG  1   1   1
M  END
