28

N          1.11698       -0.08649       -0.26479
C          2.57151       -0.03748       -0.09732
C          3.21136        0.06320       -1.47848
C          2.99471        1.08362        0.82210
C          3.72556        0.80114        1.98397
C          4.05339        1.81824        2.88373
C          2.61747        2.41679        0.57522
C          2.92169        3.44248        1.48161
C          3.64710        3.14108        2.65320
C          3.92929        4.16681        3.56979
C          3.49249        5.47018        3.33739
C          2.77085        5.76824        2.18410
C          2.48896        4.76289        1.26143
Cl        -0.95254        0.56130        1.56156
H          0.71670       -0.90434       -0.72385
H          0.68624        0.76010       -0.65251
H          0.61927       -0.06086        0.67156
H          2.84229       -1.00310        0.34470
H          2.93376        0.98898       -1.99486
H          2.90547       -0.77606       -2.11313
H          4.30431        0.04194       -1.40250
H          4.02664       -0.21684        2.22356
H          4.60150        1.56552        3.78944
H          2.04047        2.66553       -0.31358
H          4.47859        3.95159        4.48369
H          3.70018        6.25097        4.06422
H          2.41298        6.77963        2.01179
H          1.90856        5.01238        0.37686
