24

N          1.14132        0.35514       -0.54271
C          2.43025       -0.09296        0.03175
C          2.85926       -1.39365       -0.57709
C          2.44996       -2.60881       -0.01470
C          2.77213       -3.81764       -0.63488
C          3.61977       -1.41226       -1.75873
C          3.95270       -2.62360       -2.39108
C          3.50810       -3.84066       -1.82791
C          3.80974       -5.04982       -2.47233
C          4.54876       -5.06037       -3.65554
C          5.00570       -3.86509       -4.20022
C          4.71152       -2.65364       -3.57357
H          0.84355        1.25716       -0.15522
H          0.40402       -0.33588       -0.35839
H          1.21424        0.44766       -1.56342
H          2.28556       -0.18025        1.11337
H          3.15959        0.70147       -0.15597
H          1.88202       -2.64237        0.91390
H          2.44513       -4.75188       -0.17957
H          3.96683       -0.47946       -2.20266
H          3.46770       -5.99801       -2.06152
H          4.77111       -6.00470       -4.14856
H          5.59017       -3.87703       -5.11827
H          5.08519       -1.73496       -4.02078
