 xtb: 6.5.1 (fef0646)
          01232313443D

 24 25  0     0  0            999 V2000
    1.1208    0.3407   -0.4761 N   0  0  0  0  0  0  0  0  0  0  0  0
    2.4860   -0.0895    0.0120 C   0  0  0  0  0  0  0  0  0  0  0  0
    2.8543   -1.3883   -0.6430 C   0  0  0  0  0  0  0  0  0  0  0  0
    2.3935   -2.5981   -0.0827 C   0  0  0  0  0  0  0  0  0  0  0  0
    2.7038   -3.7910   -0.6706 C   0  0  0  0  0  0  0  0  0  0  0  0
    3.6030   -1.4062   -1.7936 C   0  0  0  0  0  0  0  0  0  0  0  0
    3.9366   -2.6213   -2.4225 C   0  0  0  0  0  0  0  0  0  0  0  0
    3.4798   -3.8398   -1.8479 C   0  0  0  0  0  0  0  0  0  0  0  0
    3.8249   -5.0579   -2.4679 C   0  0  0  0  0  0  0  0  0  0  0  0
    4.5843   -5.0677   -3.6055 C   0  0  0  0  0  0  0  0  0  0  0  0
    5.0297   -3.8638   -4.1759 C   0  0  0  0  0  0  0  0  0  0  0  0
    4.7139   -2.6654   -3.5989 C   0  0  0  0  0  0  0  0  0  0  0  0
    0.8100    1.2122   -0.0292 H   0  0  0  0  0  0  0  0  0  0  0  0
    0.4431   -0.4063   -0.2732 H   0  0  0  0  0  0  0  0  0  0  0  0
    1.1514    0.4743   -1.4954 H   0  0  0  0  0  0  0  0  0  0  0  0
    2.4345   -0.1971    1.0961 H   0  0  0  0  0  0  0  0  0  0  0  0
    3.1987    0.6961   -0.2396 H   0  0  0  0  0  0  0  0  0  0  0  0
    1.8138   -2.5753    0.8290 H   0  0  0  0  0  0  0  0  0  0  0  0
    2.3631   -4.7177   -0.2348 H   0  0  0  0  0  0  0  0  0  0  0  0
    3.9682   -0.4848   -2.2259 H   0  0  0  0  0  0  0  0  0  0  0  0
    3.4812   -5.9811   -2.0264 H   0  0  0  0  0  0  0  0  0  0  0  0
    4.8451   -6.0027   -4.0760 H   0  0  0  0  0  0  0  0  0  0  0  0
    5.6255   -3.8930   -5.0750 H   0  0  0  0  0  0  0  0  0  0  0  0
    5.0592   -1.7378   -4.0311 H   0  0  0  0  0  0  0  0  0  0  0  0
  1  2  1  0  0  0  0
  2  3  1  0  0  0  0
  3  4  4  0  0  0  0
  4  5  2  0  0  0  0
  3  6  2  0  0  0  0
  6  7  4  0  0  0  0
  5  8  4  0  0  0  0
  7  8  4  0  0  0  0
  8  9  4  0  0  0  0
  9 10  2  0  0  0  0
 10 11  4  0  0  0  0
  7 12  4  0  0  0  0
 11 12  2  0  0  0  0
  1 13  1  0  0  0  0
  1 14  1  0  0  0  0
  1 15  1  0  0  0  0
  2 16  1  0  0  0  0
  2 17  1  0  0  0  0
  4 18  1  0  0  0  0
  5 19  1  0  0  0  0
  6 20  1  0  0  0  0
  9 21  1  0  0  0  0
 10 22  1  0  0  0  0
 11 23  1  0  0  0  0
 12 24  1  0  0  0  0
M  CHG  1   1   1
M  END
