 xtb: 6.5.1 (fef0646)
          01242317133D

 43 46  0     0  0            999 V2000
    5.3921   -1.3198   -1.5741 N   0  0  0  0  0  0  0  0  0  0  0  0
    4.2247   -0.4281   -1.3245 C   0  0  0  0  0  0  0  0  0  0  0  0
    3.9952   -0.1878    0.1623 C   0  0  0  0  0  0  0  0  0  0  0  0
    2.8955    0.6842    0.4267 O   0  0  0  0  0  0  0  0  0  0  0  0
    1.6354    0.1358    0.2775 C   0  0  0  0  0  0  0  0  0  0  0  0
    1.3695   -1.1981   -0.0117 C   0  0  0  0  0  0  0  0  0  0  0  0
    0.0787   -1.6650   -0.1455 C   0  0  0  0  0  0  0  0  0  0  0  0
   -1.0301   -0.8361    0.0002 C   0  0  0  0  0  0  0  0  0  0  0  0
   -0.8097    0.5386    0.2985 C   0  0  0  0  0  0  0  0  0  0  0  0
   -1.9001    1.4428    0.4585 C   0  0  0  0  0  0  0  0  0  0  0  0
   -1.6226    2.7700    0.7515 C   0  0  0  0  0  0  0  0  0  0  0  0
   -0.3197    3.2284    0.8872 C   0  0  0  0  0  0  0  0  0  0  0  0
    0.7333    2.3700    0.7330 C   0  0  0  0  0  0  0  0  0  0  0  0
    0.5173    1.0188    0.4386 C   0  0  0  0  0  0  0  0  0  0  0  0
   -2.3932   -1.3314   -0.1420 C   0  0  0  0  0  0  0  0  0  0  0  0
   -2.6706   -2.6612   -0.4259 C   0  0  0  0  0  0  0  0  0  0  0  0
   -3.9747   -3.1231   -0.5621 C   0  0  0  0  0  0  0  0  0  0  0  0
   -5.0304   -2.2703   -0.4188 C   0  0  0  0  0  0  0  0  0  0  0  0
   -4.8143   -0.9081   -0.1291 C   0  0  0  0  0  0  0  0  0  0  0  0
   -5.8940   -0.0148    0.0217 C   0  0  0  0  0  0  0  0  0  0  0  0
   -5.6686    1.3010    0.3029 C   0  0  0  0  0  0  0  0  0  0  0  0
   -4.3706    1.7798    0.4457 C   0  0  0  0  0  0  0  0  0  0  0  0
   -3.2685    0.9500    0.3095 C   0  0  0  0  0  0  0  0  0  0  0  0
   -3.4862   -0.4272    0.0136 C   0  0  0  0  0  0  0  0  0  0  0  0
    8.1734    0.2094   -0.0660 Cl  0  0  0  0  0  0  0  0  0  0  0  0
    5.5623   -1.4634   -2.5814 H   0  0  0  0  0  0  0  0  0  0  0  0
    5.2507   -2.2415   -1.1409 H   0  0  0  0  0  0  0  0  0  0  0  0
    6.2466   -0.9143   -1.1633 H   0  0  0  0  0  0  0  0  0  0  0  0
    3.3248   -0.8525   -1.7808 H   0  0  0  0  0  0  0  0  0  0  0  0
    4.3744    0.5351   -1.8250 H   0  0  0  0  0  0  0  0  0  0  0  0
    4.8804    0.2848    0.6025 H   0  0  0  0  0  0  0  0  0  0  0  0
    3.8568   -1.1227    0.7140 H   0  0  0  0  0  0  0  0  0  0  0  0
    2.1839   -1.8884   -0.1334 H   0  0  0  0  0  0  0  0  0  0  0  0
   -0.0639   -2.7060   -0.3710 H   0  0  0  0  0  0  0  0  0  0  0  0
   -2.4271    3.4711    0.8792 H   0  0  0  0  0  0  0  0  0  0  0  0
   -0.1375    4.2663    1.1143 H   0  0  0  0  0  0  0  0  0  0  0  0
    1.7466    2.7191    0.8349 H   0  0  0  0  0  0  0  0  0  0  0  0
   -1.8658   -3.3632   -0.5453 H   0  0  0  0  0  0  0  0  0  0  0  0
   -4.1518   -4.1634   -0.7830 H   0  0  0  0  0  0  0  0  0  0  0  0
   -6.0399   -2.6296   -0.5251 H   0  0  0  0  0  0  0  0  0  0  0  0
   -6.8994   -0.3843   -0.0884 H   0  0  0  0  0  0  0  0  0  0  0  0
   -6.5018    1.9759    0.4155 H   0  0  0  0  0  0  0  0  0  0  0  0
   -4.2329    2.8224    0.6667 H   0  0  0  0  0  0  0  0  0  0  0  0
  1  2  1  0  0  0  0
  2  3  1  0  0  0  0
  3  4  1  0  0  0  0
  4  5  1  0  0  0  0
  5  6  4  0  0  0  0
  6  7  4  0  0  0  0
  7  8  4  0  0  0  0
  8  9  4  0  0  0  0
  9 10  4  0  0  0  0
 10 11  4  0  0  0  0
 11 12  4  0  0  0  0
 12 13  2  0  0  0  0
  5 14  4  0  0  0  0
  9 14  4  0  0  0  0
 13 14  4  0  0  0  0
  8 15  1  0  0  0  0
 15 16  4  0  0  0  0
 16 17  4  0  0  0  0
 17 18  2  0  0  0  0
 18 19  4  0  0  0  0
 19 20  4  0  0  0  0
 20 21  2  0  0  0  0
 21 22  4  0  0  0  0
 10 23  1  0  0  0  0
 22 23  4  0  0  0  0
 15 24  4  0  0  0  0
 19 24  4  0  0  0  0
 23 24  4  0  0  0  0
  1 26  1  0  0  0  0
  1 27  1  0  0  0  0
  1 28  1  0  0  0  0
  2 29  1  0  0  0  0
  2 30  1  0  0  0  0
  3 31  1  0  0  0  0
  3 32  1  0  0  0  0
  6 33  1  0  0  0  0
  7 34  1  0  0  0  0
 11 35  1  0  0  0  0
 12 36  1  0  0  0  0
 13 37  1  0  0  0  0
 16 38  1  0  0  0  0
 17 39  1  0  0  0  0
 18 40  1  0  0  0  0
 20 41  1  0  0  0  0
 21 42  1  0  0  0  0
 22 43  1  0  0  0  0
M  END
