46
 xtb: 6.5.1 (fef0646)
N           -7.41671922595694        0.18981027111148        1.79242222978096
C           -7.70976783292369       -0.75193294787255        0.67796948116493
C           -7.09341201855279       -0.28881299650493       -0.63993989003632
C           -5.63577079035767       -0.01702156681627       -0.52193763815446
C           -5.08685451402616        1.19509127435931       -0.24618601632664
C           -3.66947774590375        1.17661619653756       -0.16670162942227
C           -3.12367345009431       -0.05836381597926       -0.38139678871436
C           -1.71524301130559       -0.36752095438056       -0.35823335599526
C           -1.16790767670807       -1.60270540183765       -0.57314117512378
C            0.25172186703308       -1.64374492929265       -0.49326560396135
C            1.02273832288212       -2.90125569708715       -0.69620445932266
C            0.80785599583140       -0.41281363108796       -0.21084758331917
C            2.20523588731412       -0.08576670430035       -0.06016416558860
C            2.68041694807426        1.17225000091945        0.20747218716624
C            4.08866770094338        1.25041086236086        0.30979946987139
C            4.73275888871458        0.05551443511541        0.12433934130991
C            6.16709714279827       -0.11488801566071        0.18331535690262
C            6.88696695992499       -1.27946896851154        0.02918055640843
C            6.29648307650011       -2.61964112457166       -0.24072108622671
C            8.29709333847808       -1.07620338382840        0.15252113051023
C            8.64851773596726        0.20840887306479        0.39049754367767
S            7.25854096925823        1.22150333174549        0.45162682418326
S            3.55038271255072       -1.18567009837626       -0.18429647764448
S           -0.45204083285829        0.77842896407641       -0.03814336028075
S           -4.39205768138415       -1.21238631184345       -0.69948664456607
Cl          -7.72577089880157        3.52300992355377        0.46544858868782
H           -6.41211123600731        0.23499210889266        1.99887514687949
H           -7.93135559741377        0.00253326146855        2.64941500704051
H           -7.67202942512789        1.18981165798728        1.49591897377982
H           -8.79600253960404       -0.85892605183500        0.57198017207220
H           -7.32457379193733       -1.72345103708877        0.95772449379098
H           -7.59463666769507        0.61657858931967       -0.99932859993512
H           -7.25619582327255       -1.04668498225069       -1.41996276730786
H           -5.68140793477935        2.08617474064270       -0.11673553340350
H           -3.07033982409324        2.05453042899637        0.01816006586816
H           -1.76838903777889       -2.47768143897847       -0.76326409314670
H            0.35892095735178       -3.74561700113525       -0.88620526955409
H            1.59479912166142       -3.14934692890464        0.22240368160034
H            1.71909727955005       -2.80863938640956       -1.50579092103196
H            2.02918147714294        2.02466431205133        0.32792141297588
H            4.61853006834277        2.16800069664014        0.51614021839365
H            7.07374407930653       -3.37221469124545       -0.38448235024868
H            5.72835002640800       -2.58845733395870       -1.21303100292208
H            5.62708664286245       -2.92143462704433        0.51860282603243
H            9.01206579640418       -1.87656487758128        0.02739111229522
H            9.65268465405884        0.56521745025656        0.52626901576775
