35
 xtb: 6.5.1 (fef0646)
N           -7.56779321583229       -0.06506370238129        0.05559180012893
C           -6.15001307085952        0.41015948496399        0.07786627797782
C           -5.14972041385464       -0.72857179442538       -0.10737967691626
C           -3.69507565205457       -0.34580958917104       -0.04420250580904
C           -3.26045536916966        0.96506305567283        0.13065818447556
C           -1.92101863111839        1.26640669117242        0.18549564534923
C           -0.94548689406876        0.26561758688727        0.05910332956840
C            0.44406312754753        0.61815722873940        0.12091724031763
C            1.48612754689382       -0.23665027127032       -0.06046345573477
C            2.87632482389071        0.11197119160206        0.00858817359085
C            3.84381104050130       -0.87595903945631       -0.22034375095254
C            5.19236085382806       -0.58956756391909       -0.16025927065124
F            6.09993011281890       -1.55124769682942       -0.39575543292921
C            5.60291818868105        0.70698854920137        0.12315172531945
C            4.66941383182638        1.69843163906569        0.34934817828454
C            3.32482571724185        1.41308634031599        0.29546813955038
C           -1.39089563492365       -1.05315304627475       -0.11848316528156
C           -2.73301122300733       -1.34346304992316       -0.16693874748870
H           -7.75616925502072       -0.53943503021017       -0.84870927478949
H           -8.22488456210718        0.72369168664536        0.12944502006900
H           -7.76196776937966       -0.72340061444488        0.80417944276066
H           -5.96883660641970        0.88400933332381        1.07042075411545
H           -5.99456390027507        1.18337429336924       -0.65568827825394
H           -5.34090536307304       -1.19202056806535       -1.08514030687510
H           -5.33786222207926       -1.51224604222107        0.62673168242090
H           -3.98066375174343        1.75042954049118        0.27760179974826
H           -1.60764218744078        2.27934897347779        0.37047203136391
H            0.66064192767156        1.65392827019054        0.30553685697301
H            1.26936256703986       -1.27214653626691       -0.24972046412452
H            3.54519139736933       -1.89143996900895       -0.40582388029772
H            6.65737207251596        0.92214314811511        0.13972603104267
H            4.99722577757052        2.71190265185066        0.51798041863251
H            2.61329856179262        2.20625798399900        0.44003413743578
H           -0.67794247655132       -1.84521252504869       -0.26350527064174
H           -3.05492582187430       -2.35479826201510       -0.35277241945917
