 xtb: 6.5.1 (fef0646)
          02032318433D

 35 36  0     0  0            999 V2000
   -7.5680   -0.0603    0.0371 N   0  0  0  0  0  0  0  0  0  0  0  0
   -6.1496    0.4045    0.1103 C   0  0  0  0  0  0  0  0  0  0  0  0
   -5.1501   -0.7270   -0.1147 C   0  0  0  0  0  0  0  0  0  0  0  0
   -3.6953   -0.3460   -0.0443 C   0  0  0  0  0  0  0  0  0  0  0  0
   -3.2604    0.9582    0.1705 C   0  0  0  0  0  0  0  0  0  0  0  0
   -1.9209    1.2598    0.2221 C   0  0  0  0  0  0  0  0  0  0  0  0
   -0.9455    0.2650    0.0583 C   0  0  0  0  0  0  0  0  0  0  0  0
    0.4440    0.6186    0.1148 C   0  0  0  0  0  0  0  0  0  0  0  0
    1.4865   -0.2398   -0.0447 C   0  0  0  0  0  0  0  0  0  0  0  0
    2.8765    0.1118    0.0105 C   0  0  0  0  0  0  0  0  0  0  0  0
    3.8443   -0.8812   -0.1922 C   0  0  0  0  0  0  0  0  0  0  0  0
    5.1927   -0.5913   -0.1500 C   0  0  0  0  0  0  0  0  0  0  0  0
    6.1006   -1.5601   -0.3483 F   0  0  0  0  0  0  0  0  0  0  0  0
    5.6028    0.7119    0.0995 C   0  0  0  0  0  0  0  0  0  0  0  0
    4.6690    1.7076    0.3034 C   0  0  0  0  0  0  0  0  0  0  0  0
    3.3245    1.4200    0.2611 C   0  0  0  0  0  0  0  0  0  0  0  0
   -1.3912   -1.0474   -0.1574 C   0  0  0  0  0  0  0  0  0  0  0  0
   -2.7334   -1.3374   -0.2061 C   0  0  0  0  0  0  0  0  0  0  0  0
   -7.7676   -0.4717   -0.8805 H   0  0  0  0  0  0  0  0  0  0  0  0
   -8.2244    0.7131    0.1878 H   0  0  0  0  0  0  0  0  0  0  0  0
   -7.7516   -0.7750    0.7490 H   0  0  0  0  0  0  0  0  0  0  0  0
   -5.9723    0.8670    1.0877 H   0  0  0  0  0  0  0  0  0  0  0  0
   -5.9907    1.1931   -0.6336 H   0  0  0  0  0  0  0  0  0  0  0  0
   -5.3420   -1.1835   -1.0908 H   0  0  0  0  0  0  0  0  0  0  0  0
   -5.3372   -1.5179    0.6183 H   0  0  0  0  0  0  0  0  0  0  0  0
   -3.9806    1.7470    0.2985 H   0  0  0  0  0  0  0  0  0  0  0  0
   -1.6076    2.2761    0.3893 H   0  0  0  0  0  0  0  0  0  0  0  0
    0.6605    1.6556    0.2952 H   0  0  0  0  0  0  0  0  0  0  0  0
    1.2697   -1.2752   -0.2335 H   0  0  0  0  0  0  0  0  0  0  0  0
    3.5455   -1.8950   -0.3872 H   0  0  0  0  0  0  0  0  0  0  0  0
    6.6573    0.9242    0.1298 H   0  0  0  0  0  0  0  0  0  0  0  0
    4.9970    2.7161    0.4966 H   0  0  0  0  0  0  0  0  0  0  0  0
    2.6131    2.2094    0.4239 H   0  0  0  0  0  0  0  0  0  0  0  0
   -0.6781   -1.8419   -0.2852 H   0  0  0  0  0  0  0  0  0  0  0  0
   -3.0551   -2.3515   -0.3734 H   0  0  0  0  0  0  0  0  0  0  0  0
  1  2  1  0  0  0  0
  2  3  1  0  0  0  0
  3  4  1  0  0  0  0
  4  5  4  0  0  0  0
  5  6  4  0  0  0  0
  6  7  4  0  0  0  0
  7  8  1  0  0  0  0
  8  9  2  0  0  0  0
  9 10  1  0  0  0  0
 10 11  4  0  0  0  0
 11 12  4  0  0  0  0
 12 13  1  0  0  0  0
 12 14  4  0  0  0  0
 14 15  4  0  0  0  0
 10 16  4  0  0  0  0
 15 16  4  0  0  0  0
  7 17  4  0  0  0  0
  4 18  4  0  0  0  0
 17 18  4  0  0  0  0
  1 19  1  0  0  0  0
  1 20  1  0  0  0  0
  1 21  1  0  0  0  0
  2 22  1  0  0  0  0
  2 23  1  0  0  0  0
  3 24  1  0  0  0  0
  3 25  1  0  0  0  0
  5 26  1  0  0  0  0
  6 27  1  0  0  0  0
  8 28  1  0  0  0  0
  9 29  1  0  0  0  0
 11 30  1  0  0  0  0
 14 31  1  0  0  0  0
 15 32  1  0  0  0  0
 16 33  1  0  0  0  0
 17 34  1  0  0  0  0
 18 35  1  0  0  0  0
M  CHG  1   1   1
M  END
