 xtb: 6.5.1 (fef0646)
          01242317073D

 26 25  0     0  0            999 V2000
   -2.3063   -0.9786    1.4911 N   0  0  0  0  0  0  0  0  0  0  0  0
   -2.0887   -2.0797    0.5097 C   0  0  0  0  0  0  0  0  0  0  0  0
   -1.4244   -1.5849   -0.7731 C   0  0  0  0  0  0  0  0  0  0  0  0
   -0.1183   -0.8912   -0.5243 C   0  0  0  0  0  0  0  0  0  0  0  0
   -0.0681    0.4867   -0.3751 C   0  0  0  0  0  0  0  0  0  0  0  0
    1.1231    1.1238   -0.1148 C   0  0  0  0  0  0  0  0  0  0  0  0
    2.3141    0.4059    0.0135 C   0  0  0  0  0  0  0  0  0  0  0  0
    3.4820    1.1283    0.2788 O   0  0  0  0  0  0  0  0  0  0  0  0
    4.6504    0.3453    0.3935 C   0  0  0  0  0  0  0  0  0  0  0  0
    2.2532   -0.9829   -0.1296 C   0  0  0  0  0  0  0  0  0  0  0  0
    1.0581   -1.6148   -0.3901 C   0  0  0  0  0  0  0  0  0  0  0  0
   -3.3906    1.8240   -0.3567 Cl  0  0  0  0  0  0  0  0  0  0  0  0
   -1.4081   -0.6235    1.8457 H   0  0  0  0  0  0  0  0  0  0  0  0
   -2.8714   -1.2784    2.3014 H   0  0  0  0  0  0  0  0  0  0  0  0
   -2.7838   -0.1847    1.0383 H   0  0  0  0  0  0  0  0  0  0  0  0
   -3.0469   -2.5601    0.2772 H   0  0  0  0  0  0  0  0  0  0  0  0
   -1.4711   -2.8590    0.9712 H   0  0  0  0  0  0  0  0  0  0  0  0
   -2.0986   -0.8949   -1.2919 H   0  0  0  0  0  0  0  0  0  0  0  0
   -1.2652   -2.4154   -1.4702 H   0  0  0  0  0  0  0  0  0  0  0  0
   -0.9800    1.0546   -0.4547 H   0  0  0  0  0  0  0  0  0  0  0  0
    1.1581    2.1931   -0.0009 H   0  0  0  0  0  0  0  0  0  0  0  0
    4.5498   -0.3591    1.2200 H   0  0  0  0  0  0  0  0  0  0  0  0
    5.4953    1.0053    0.5960 H   0  0  0  0  0  0  0  0  0  0  0  0
    4.8375   -0.1880   -0.5400 H   0  0  0  0  0  0  0  0  0  0  0  0
    3.1492   -1.5692   -0.0331 H   0  0  0  0  0  0  0  0  0  0  0  0
    1.0255   -2.6867   -0.4908 H   0  0  0  0  0  0  0  0  0  0  0  0
  1  2  1  0  0  0  0
  2  3  1  0  0  0  0
  3  4  1  0  0  0  0
  4  5  4  0  0  0  0
  5  6  4  0  0  0  0
  6  7  4  0  0  0  0
  7  8  1  0  0  0  0
  8  9  1  0  0  0  0
  7 10  4  0  0  0  0
  4 11  4  0  0  0  0
 10 11  4  0  0  0  0
  1 13  1  0  0  0  0
  1 14  1  0  0  0  0
  1 15  1  0  0  0  0
  2 16  1  0  0  0  0
  2 17  1  0  0  0  0
  3 18  1  0  0  0  0
  3 19  1  0  0  0  0
  5 20  1  0  0  0  0
  6 21  1  0  0  0  0
  9 22  1  0  0  0  0
  9 23  1  0  0  0  0
  9 24  1  0  0  0  0
 10 25  1  0  0  0  0
 11 26  1  0  0  0  0
M  END
