 xtb: 6.5.1 (fef0646)
          02032317503D

 16 15  0     0  0            999 V2000
    0.3659   -1.7152   -0.0000 N   0  0  0  0  0  0  0  0  0  0  0  0
    1.5024   -0.7463   -0.0001 C   0  0  0  0  0  0  0  0  0  0  0  0
    1.4066    0.3529    1.0848 C   0  0  0  0  0  0  0  0  0  0  0  0
    1.7253    1.4081    0.0000 C   0  0  0  0  0  0  0  0  0  0  0  0
    1.4063    0.3531   -1.0848 C   0  0  0  0  0  0  0  0  0  0  0  0
   -2.5227    0.2611    0.0000 Cl  0  0  0  0  0  0  0  0  0  0  0  0
    0.3889   -2.3141    0.8351 H   0  0  0  0  0  0  0  0  0  0  0  0
    0.3889   -2.3142   -0.8351 H   0  0  0  0  0  0  0  0  0  0  0  0
   -0.5312   -1.2030   -0.0000 H   0  0  0  0  0  0  0  0  0  0  0  0
    2.4824   -1.2514   -0.0003 H   0  0  0  0  0  0  0  0  0  0  0  0
    2.1547    0.2717    1.8846 H   0  0  0  0  0  0  0  0  0  0  0  0
    0.3984    0.4399    1.5066 H   0  0  0  0  0  0  0  0  0  0  0  0
    2.7744    1.7319   -0.0000 H   0  0  0  0  0  0  0  0  0  0  0  0
    1.0563    2.2796    0.0002 H   0  0  0  0  0  0  0  0  0  0  0  0
    2.1542    0.2720   -1.8848 H   0  0  0  0  0  0  0  0  0  0  0  0
    0.3981    0.4402   -1.5064 H   0  0  0  0  0  0  0  0  0  0  0  0
  1  2  1  0  0  0  0
  2  3  1  0  0  0  0
  3  4  1  0  0  0  0
  2  5  1  0  0  0  0
  4  5  1  0  0  0  0
  1  7  1  0  0  0  0
  1  8  1  0  0  0  0
  1  9  1  0  0  0  0
  2 10  1  0  0  0  0
  3 11  1  0  0  0  0
  3 12  1  0  0  0  0
  4 13  1  0  0  0  0
  4 14  1  0  0  0  0
  5 15  1  0  0  0  0
  5 16  1  0  0  0  0
M  END
