18
1.207
N           -1.84174   1.76538  -0.53763
C           -0.65148   2.29649   0.18432
C            0.64141   1.58179  -0.19567
C            0.66726   0.11596   0.21553
C            1.98556  -0.52786  -0.11490
O            3.03152  -0.17413   0.66508
O            2.06947  -1.29854  -1.04650
Cl          -2.43248  -1.58131   0.37056
H           -2.69610   2.29487  -0.30812
H           -2.01435   0.77937  -0.29262
H           -1.70379   1.81228  -1.55470
H           -0.81481   2.21342   1.26489
H           -0.56051   3.37053  -0.01886
H            1.50210   2.08913   0.25687
H            0.79915   1.65543  -1.27697
H           -0.12743  -0.44035  -0.28829
H            0.48294   0.01926   1.28918
H            3.82352  -0.63541   0.35598
