18
2.816
N           -0.81873   0.77237  -0.69215
C           -0.42849   1.45270   0.57673
C            0.94765   2.11342   0.45399
C            2.11249   1.16623   0.75804
C            2.11472  -0.09870  -0.06127
O            2.30389  -1.24755   0.62929
O            1.95600  -0.06534  -1.26255
Cl          -3.35588  -1.58934  -0.08874
H           -1.57153   0.07568  -0.55703
H            0.02183   0.29679  -1.05568
H           -1.12044   1.44669  -1.40608
H           -0.41193   0.72962   1.40089
H           -1.20035   2.18556   0.84258
H            1.00751   2.98867   1.11276
H            1.05754   2.50562  -0.56268
H            2.08764   0.87827   1.81342
H            3.06891   1.67668   0.60949
H            2.29894  -1.98975   0.00868
