18
1.297
N           -0.86042   0.61274   1.36161
C           -0.52861   1.88674   0.66987
C            0.37162   1.67623  -0.54692
C            1.79363   1.22164  -0.20185
C            1.87542  -0.22367   0.21466
O            1.95878  -1.12491  -0.79036
O            1.84015  -0.53011   1.38772
Cl          -2.64220  -1.34059  -0.94114
H           -1.37276   0.75474   2.24455
H            0.02359   0.11735   1.55852
H           -1.42033   0.00289   0.74844
H           -0.03580   2.56772   1.37336
H           -1.45987   2.38727   0.37758
H            0.41689   2.60630  -1.12740
H           -0.08565   0.93747  -1.21378
H            2.20602   1.84507   0.59625
H            2.45466   1.35462  -1.06451
H            2.01329  -2.01332  -0.41076
