  28

 N         -2.3358069269        0.6785737796       -0.5385475827
 C         -1.7526704120       -0.4510628555        0.1950519699
 C         -2.1572294876       -0.4269188665        1.6654004380
 C         -0.2510340812       -0.5193005492        0.0366404919
 C          0.3678453896       -1.7430036066       -0.2858613133
 C          1.7207141148       -1.8362551550       -0.4118193198
 C          0.5265450631        0.5876023264        0.2328139384
 C          1.9330515834        0.5305502943        0.1081716657
 C          2.5419280635       -0.7031976650       -0.2195671207
 C          3.9490794149       -0.7613035211       -0.3403849154
 C          4.7084225806        0.3530643871       -0.1458140534
 C          4.1050164333        1.5759329324        0.1778032028
 C          2.7513492939        1.6664657725        0.3030681192
 Cl        -5.5557709255       -0.1609594464       -0.4655171838
 H         -1.9355287914        0.7119505551       -1.4697517080
 H         -2.0593201362        1.5408372699       -0.0859945551
 H         -4.2622162641        0.1828116654       -0.5028254689
 H         -2.1733589361       -1.3618693630       -0.2623874048
 H         -1.7508197447        0.4557389341        2.1582350079
 H         -1.7823229108       -1.3027330526        2.1958740932
 H         -3.2409188447       -0.3976922353        1.7783753654
 H         -0.2476442126       -2.6150300585       -0.4300221102
 H          2.1813304320       -2.7779095675       -0.6581587192
 H          0.0675173829        1.5247513834        0.4918764232
 H          4.4129189730       -1.7010428157       -0.5882234043
 H          5.7808699626        0.2972767610       -0.2403184097
 H          4.7194422465        2.4489325395        0.3281183155
 H          2.2882208861        2.6063366374        0.5519143714
          28
        -40.29473230
 N         -2.4353027421       -0.4601938035        0.9029997384
 C         -1.7063362645       -0.0253321115       -0.2933455418
 C         -2.2543948088       -0.6897064465       -1.5528603218
 C         -0.2176343685       -0.2444738563       -0.1475271991
 C          0.2943563587       -1.5415322626        0.0413820212
 C          1.6326780562       -1.7587783024        0.1715094741
 C          0.6492738618        0.8133022186       -0.1960953317
 C          2.0440179316        0.6270475005       -0.0652829726
 C          2.5456690551       -0.6823512903        0.1201315162
 C          3.9412574687       -0.8697551721        0.2449024501
 C          4.7915213290        0.1932926494        0.1887046702
 C          4.2946436574        1.4910594162        0.0069781791
 C          2.9550238317        1.7066429438       -0.1171676171
 Cl        -5.5203418780        0.5994507752        0.2510350110
 H         -1.9908629525       -0.0609383203        1.7219350754
 H         -2.3329977734       -1.4634332034        0.9975833632
 H         -4.2794421790        0.1778517557        0.5262147009
 H         -1.8756027555        1.0606884312       -0.3815315475
 H         -3.3191322960       -0.4905382430       -1.6759631790
 H         -2.1276916045       -1.7703957324       -1.5033484350
 H         -1.7366723331       -0.3373018000       -2.4454360845
 H         -0.3903770903       -2.3715277732        0.0810225297
 H          2.0112729780       -2.7567922670        0.3136099755
 H          0.2684200723        1.8094183683       -0.3383408321
 H          4.3231719093       -1.8670300845        0.3838982393
 H          5.8542149758        0.0386984418        0.2838870399
 H          4.9800286169        2.3221707854       -0.0346345383
 H          2.5738521768        2.7041402633       -0.2568625979
