  28

 N          2.4657152616        0.8337270504       -0.9158353913
 C          2.3194563236       -0.0181992359        0.2664139740
 C          0.8457444574       -0.3959693942        0.4174273814
 C          2.8234434569        0.6076803924        1.5506136817
 C          3.4462686860       -0.2153858049        2.5100880000
 C          3.8858595710        0.2958523204        3.6966774905
 C          2.6590626388        1.9406581745        1.8232123896
 C          3.1063220438        2.5036351829        3.0359953111
 C          3.7323322073        1.6661190999        3.9945765962
 C          4.1773949188        2.2290779953        5.2081500164
 C          4.0094139699        3.5616598388        5.4611874683
 C          3.3892271722        4.3906027193        4.5132540591
 C          2.9475930459        3.8745288236        3.3274322017
 Cl         1.6109565194       -0.6030292696       -3.3182347331
 H          3.4269441317        1.1363457338       -1.0329433819
 H          1.8677714903        1.6505350745       -0.8483191587
 H          2.0176747651        0.0661541090       -2.1840871694
 H          2.8988955136       -0.9267264781        0.0665108850
 H          0.2499847387        0.4903493286        0.6256281544
 H          0.7209463755       -1.0952479701        1.2393213163
 H          0.4886804931       -0.8550685539       -0.4998430242
 H          3.5707767930       -1.2660099686        2.2899583625
 H          4.3612344963       -0.3440424427        4.4261283513
 H          2.1767583856        2.5987359360        1.1122567470
 H          4.6536639344        1.5860122443        5.9344216397
 H          4.3525215081        3.9877916899        6.3925052125
 H          3.2645396268        5.4413580591        4.7302994029
 H          2.4693374752        4.5108853455        2.5960342170
