28
 xtb: 6.5.1 (fef0646)
N           -2.54734768618179       -0.38717020240090        0.28122711007693
C           -1.07108437462989       -0.20936956836505        0.13701340836672
C           -0.27143422287463       -1.42828005156993        0.58363651874633
C            1.26100390138347       -1.28025118311913        0.45203275506482
C            1.83682723509610       -0.15005888022233        1.33843364991818
C            3.37268193984055       -0.09871344540298        1.25042925072009
C            3.83678801531554        0.07613630061042       -0.20689583599334
C            3.25952961266885       -1.02951430861059       -1.10856484316999
C            1.72490197765204       -1.07675042343990       -1.01075542740667
Cl          -4.20864121465374        2.14641968377920       -0.66843013984231
H           -3.08353501358977        0.36359256459593        0.00550236086104
H           -2.76837781561421       -0.65532953575277        1.29805190630158
H           -2.84385956208068       -1.27544392591913       -0.24395899772798
H           -0.75983367420393        0.63751992769392        0.72268420620682
H           -0.84014799892551       -0.00747157059588       -0.89641153185602
H           -0.57059956402503       -2.33189592177651        0.01810366557330
H           -0.49354729371362       -1.68885602734964        1.63615925541320
H            1.75611439977555       -2.22595180102843        0.80165552348489
H            1.51203540242390       -0.27596310808716        2.37826590665624
H            1.43057968963711        0.80009111403908        1.00414226320661
H            3.80837774878638       -1.02234112692539        1.65482468335131
H            3.77980368461157        0.70949562720008        1.88446241297253
H            4.94031955979936        0.10554407212481       -0.27145062223247
H            3.50917690958720        1.05886963760238       -0.57903555486335
H            3.69009630467782       -1.99466590897719       -0.80876300924334
H            3.58644700983849       -0.88464273684848       -2.15398215975589
H            1.31944897500068       -1.86687601415944       -1.65402034446765
H            1.31695437992291       -0.14112818124253       -1.38153271684886
