  25

 N         -2.6768731263        0.8749078734        0.8088004274
 C         -2.5493792809       -0.4763709607        0.1912883761
 C         -1.5221082086       -0.5202130533       -0.9399374638
 C         -0.1173921380       -0.2374683850       -0.4874772491
 C          0.3606011858        1.0036440317       -0.5271415870
 C          1.7405997765        1.3994391985       -0.1015536408
 C          2.6906509584        0.2004463966        0.0521019883
 C          1.9920598117       -0.9748111644        0.7481117049
 C          0.7165535101       -1.3962213912       -0.0026197224
 H         -3.3868399068        0.8869452881        1.5570847471
 H         -2.9570383918        1.5782862283        0.1089693085
 H         -1.7851087409        1.1831500235        1.2241875318
 H         -3.5337066185       -0.7916727300       -0.1788018378
 H         -2.2776487363       -1.2024142847        0.9666566851
 H         -1.8030436549        0.1998368135       -1.7161467139
 H         -1.5447709830       -1.4988880542       -1.4339462523
 H         -0.2821622959        1.7812450754       -0.9084344488
 H          1.6779640623        1.9370988090        0.8524888071
 H          2.1546329903        2.1198990369       -0.8194923752
 H          3.5957637613        0.4914352895        0.6024787904
 H          3.0398324256       -0.1188259530       -0.9373909914
 H          1.7339802430       -0.6866474274        1.7743147346
 H          2.6799097826       -1.8254939058        0.8479199547
 H          0.0980049865       -2.0395049750        0.6344741998
 H          0.9881408325       -2.0137993401       -0.8666379469
          25
        -27.77226310
 N         -2.7036891829        0.7979370084        0.8251186073
 C         -2.5503727912       -0.5183208709        0.1420370014
 C         -1.5126392805       -0.4903217398       -0.9801901316
 C         -0.1150482487       -0.2144694210       -0.5013808566
 C          0.3640463721        1.0270010934       -0.5153412808
 C          1.7392870750        1.4149390111       -0.0669660045
 C          2.6852158892        0.2125891990        0.0857179740
 C          1.9740424365       -0.9700266392        0.7556015272
 C          0.7123453465       -1.3807592988       -0.0234518395
 H         -3.4113951741        0.7588799918        1.5746966617
 H         -2.9992321937        1.5287750068        0.1607008002
 H         -1.8166943381        1.1035805196        1.2524203607
 H         -3.5265188647       -0.8294905684       -0.2521142452
 H         -2.2750354744       -1.2783855947        0.8826178880
 H         -1.7968896337        0.2649946044       -1.7208430093
 H         -1.5179401693       -1.4424166909       -1.5241315080
 H         -0.2733181538        1.8111725279       -0.8923004304
 H          1.6653315593        1.9420916746        0.8921168826
 H          2.1641686841        2.1426766643       -0.7711062462
 H          3.5827259397        0.4946261757        0.6528887467
 H          3.0484765077       -0.0947885570       -0.9024992980
 H          1.6971150533       -0.6931630893        1.7800125321
 H          2.6592856652       -1.8223809050        0.8586652461
 H          0.0847458624       -2.0364802741        0.5916001872
 H          0.9997030033       -1.9825689983       -0.8934317442
