 xtb: 6.5.1 (fef0646)
          01242317113D

 30 28  0     0  0            999 V2000
   -3.0850    0.5618   -0.8766 N   0  0  0  0  0  0  0  0  0  0  0  0
   -1.9778    1.5397   -0.6638 C   0  0  0  0  0  0  0  0  0  0  0  0
   -1.4728    1.5253    0.7739 C   0  0  0  0  0  0  0  0  0  0  0  0
   -0.2837    2.4585    1.0219 C   0  0  0  0  0  0  0  0  0  0  0  0
    0.9688    2.1106    0.2109 C   0  0  0  0  0  0  0  0  0  0  0  0
    1.5021    0.7032    0.4811 C   0  0  0  0  0  0  0  0  0  0  0  0
    2.7784    0.3886   -0.2997 C   0  0  0  0  0  0  0  0  0  0  0  0
    3.3362   -1.0104   -0.0210 C   0  0  0  0  0  0  0  0  0  0  0  0
    2.4192   -2.1300   -0.4929 C   0  0  0  0  0  0  0  0  0  0  0  0
   -1.4656   -2.4205    0.0338 Cl  0  0  0  0  0  0  0  0  0  0  0  0
   -2.7580   -0.3895   -0.6505 H   0  0  0  0  0  0  0  0  0  0  0  0
   -3.4221    0.5590   -1.8493 H   0  0  0  0  0  0  0  0  0  0  0  0
   -3.8856    0.7686   -0.2606 H   0  0  0  0  0  0  0  0  0  0  0  0
   -2.3091    2.5496   -0.9334 H   0  0  0  0  0  0  0  0  0  0  0  0
   -1.1569    1.3090   -1.3518 H   0  0  0  0  0  0  0  0  0  0  0  0
   -1.2048    0.4998    1.0515 H   0  0  0  0  0  0  0  0  0  0  0  0
   -2.3014    1.7852    1.4443 H   0  0  0  0  0  0  0  0  0  0  0  0
   -0.0283    2.4509    2.0893 H   0  0  0  0  0  0  0  0  0  0  0  0
   -0.5887    3.4906    0.8067 H   0  0  0  0  0  0  0  0  0  0  0  0
    1.7623    2.8398    0.4192 H   0  0  0  0  0  0  0  0  0  0  0  0
    0.7640    2.2216   -0.8603 H   0  0  0  0  0  0  0  0  0  0  0  0
    0.7319   -0.0355    0.2343 H   0  0  0  0  0  0  0  0  0  0  0  0
    1.6856    0.5781    1.5548 H   0  0  0  0  0  0  0  0  0  0  0  0
    3.5355    1.1490   -0.0682 H   0  0  0  0  0  0  0  0  0  0  0  0
    2.5836    0.4975   -1.3736 H   0  0  0  0  0  0  0  0  0  0  0  0
    3.5298   -1.1143    1.0545 H   0  0  0  0  0  0  0  0  0  0  0  0
    4.3200   -1.1168   -0.4986 H   0  0  0  0  0  0  0  0  0  0  0  0
    2.8608   -3.1163   -0.3327 H   0  0  0  0  0  0  0  0  0  0  0  0
    2.2007   -2.0385   -1.5584 H   0  0  0  0  0  0  0  0  0  0  0  0
    1.4637   -2.1167    0.0339 H   0  0  0  0  0  0  0  0  0  0  0  0
  1  2  1  0  0  0  0
  2  3  1  0  0  0  0
  3  4  1  0  0  0  0
  4  5  1  0  0  0  0
  5  6  1  0  0  0  0
  6  7  1  0  0  0  0
  7  8  1  0  0  0  0
  8  9  1  0  0  0  0
  1 11  1  0  0  0  0
  1 12  1  0  0  0  0
  1 13  1  0  0  0  0
  2 14  1  0  0  0  0
  2 15  1  0  0  0  0
  3 16  1  0  0  0  0
  3 17  1  0  0  0  0
  4 18  1  0  0  0  0
  4 19  1  0  0  0  0
  5 20  1  0  0  0  0
  5 21  1  0  0  0  0
  6 22  1  0  0  0  0
  6 23  1  0  0  0  0
  7 24  1  0  0  0  0
  7 25  1  0  0  0  0
  8 26  1  0  0  0  0
  8 27  1  0  0  0  0
  9 28  1  0  0  0  0
  9 29  1  0  0  0  0
  9 30  1  0  0  0  0
M  END
