21
1.533
N           -1.00895  -1.03067   0.58638
C            0.14886  -0.49731  -0.19009
C            1.43133  -1.27759   0.07346
C            2.61861  -0.81547  -0.77698
C            3.04754   0.63426  -0.52820
C            3.52202   0.88828   0.89529
Cl          -3.87778   0.89298  -0.09725
H           -1.87443  -0.49126   0.40569
H           -0.82163  -0.99370   1.59747
H           -1.19501  -2.01278   0.34241
H            0.29556   0.56109   0.05364
H           -0.08305  -0.51933  -1.26160
H            1.23897  -2.34344  -0.10234
H            1.68453  -1.21221   1.13750
H            2.36929  -0.95021  -1.83735
H            3.47777  -1.47476  -0.59853
H            2.21868   1.31051  -0.77242
H            3.84508   0.90642  -1.23354
H            3.87186   1.91388   1.03356
H            4.34565   0.22327   1.16142
H            2.72439   0.72023   1.62069
