 xtb: 6.5.1 (fef0646)
          01242317103D

 21 19  0     0  0            999 V2000
   -1.0090   -1.0307    0.5864 N   0  0  0  0  0  0  0  0  0  0  0  0
    0.1489   -0.4973   -0.1901 C   0  0  0  0  0  0  0  0  0  0  0  0
    1.4313   -1.2776    0.0735 C   0  0  0  0  0  0  0  0  0  0  0  0
    2.6186   -0.8155   -0.7770 C   0  0  0  0  0  0  0  0  0  0  0  0
    3.0475    0.6342   -0.5282 C   0  0  0  0  0  0  0  0  0  0  0  0
    3.5220    0.8883    0.8953 C   0  0  0  0  0  0  0  0  0  0  0  0
   -3.8778    0.8930   -0.0972 Cl  0  0  0  0  0  0  0  0  0  0  0  0
   -1.8744   -0.4912    0.4057 H   0  0  0  0  0  0  0  0  0  0  0  0
   -0.8216   -0.9937    1.5975 H   0  0  0  0  0  0  0  0  0  0  0  0
   -1.1950   -2.0128    0.3424 H   0  0  0  0  0  0  0  0  0  0  0  0
    0.2956    0.5611    0.0536 H   0  0  0  0  0  0  0  0  0  0  0  0
   -0.0831   -0.5193   -1.2616 H   0  0  0  0  0  0  0  0  0  0  0  0
    1.2390   -2.3434   -0.1023 H   0  0  0  0  0  0  0  0  0  0  0  0
    1.6845   -1.2122    1.1375 H   0  0  0  0  0  0  0  0  0  0  0  0
    2.3693   -0.9502   -1.8374 H   0  0  0  0  0  0  0  0  0  0  0  0
    3.4778   -1.4748   -0.5985 H   0  0  0  0  0  0  0  0  0  0  0  0
    2.2187    1.3105   -0.7724 H   0  0  0  0  0  0  0  0  0  0  0  0
    3.8451    0.9064   -1.2336 H   0  0  0  0  0  0  0  0  0  0  0  0
    3.8719    1.9139    1.0335 H   0  0  0  0  0  0  0  0  0  0  0  0
    4.3457    0.2232    1.1614 H   0  0  0  0  0  0  0  0  0  0  0  0
    2.7244    0.7202    1.6207 H   0  0  0  0  0  0  0  0  0  0  0  0
  1  2  1  0  0  0  0
  2  3  1  0  0  0  0
  3  4  1  0  0  0  0
  4  5  1  0  0  0  0
  5  6  1  0  0  0  0
  1  8  1  0  0  0  0
  1  9  1  0  0  0  0
  1 10  1  0  0  0  0
  2 11  1  0  0  0  0
  2 12  1  0  0  0  0
  3 13  1  0  0  0  0
  3 14  1  0  0  0  0
  4 15  1  0  0  0  0
  4 16  1  0  0  0  0
  5 17  1  0  0  0  0
  5 18  1  0  0  0  0
  6 19  1  0  0  0  0
  6 20  1  0  0  0  0
  6 21  1  0  0  0  0
M  END
