 xtb: 6.5.1 (fef0646)
          01242314573D

 16 14  0     0  0            999 V2000
    1.0312    0.1891    0.3663 N   0  0  0  0  0  0  0  0  0  0  0  0
    2.4884    0.4182    0.4297 C   0  0  0  0  0  0  0  0  0  0  0  0
    2.9529    1.1697   -0.8159 C   0  0  0  0  0  0  0  0  0  0  0  0
    4.4457    1.2541   -0.8732 C   0  0  0  0  0  0  0  0  0  0  0  0
    5.1284    2.3813   -0.9464 C   0  0  0  0  0  0  0  0  0  0  0  0
    0.3939   -1.4196   -2.1548 Cl  0  0  0  0  0  0  0  0  0  0  0  0
    0.6974   -0.3352    1.1780 H   0  0  0  0  0  0  0  0  0  0  0  0
    0.7977   -0.3698   -0.4947 H   0  0  0  0  0  0  0  0  0  0  0  0
    0.5250    1.0754    0.2957 H   0  0  0  0  0  0  0  0  0  0  0  0
    2.9894   -0.5485    0.4722 H   0  0  0  0  0  0  0  0  0  0  0  0
    2.7330    0.9898    1.3256 H   0  0  0  0  0  0  0  0  0  0  0  0
    2.5302    2.1741   -0.8382 H   0  0  0  0  0  0  0  0  0  0  0  0
    2.5944    0.6221   -1.6921 H   0  0  0  0  0  0  0  0  0  0  0  0
    4.9631    0.3041   -0.8573 H   0  0  0  0  0  0  0  0  0  0  0  0
    4.6399    3.3414   -0.9705 H   0  0  0  0  0  0  0  0  0  0  0  0
    6.2035    2.3954   -0.9970 H   0  0  0  0  0  0  0  0  0  0  0  0
  1  2  1  0  0  0  0
  2  3  1  0  0  0  0
  3  4  1  0  0  0  0
  4  5  2  0  0  0  0
  1  7  1  0  0  0  0
  1  8  1  0  0  0  0
  1  9  1  0  0  0  0
  2 10  1  0  0  0  0
  2 11  1  0  0  0  0
  3 12  1  0  0  0  0
  3 13  1  0  0  0  0
  4 14  1  0  0  0  0
  5 15  1  0  0  0  0
  5 16  1  0  0  0  0
M  END
