  22

 N          1.7018100000        0.9048800000       -0.8005800000
 C          2.5236300000       -0.0187000000        0.0011500000
 C          3.0445200000        0.6470100000        1.2267500000
 C          4.3517100000        0.8140300000        1.4922700000
 C          4.8876100000        1.3939900000        2.7386000000
 C          4.2235700000        1.2766900000        3.9683800000
 C          4.7974800000        1.7789600000        5.1392100000
 C          6.0464800000        2.3924300000        5.0982400000
 C          6.7219600000        2.5059400000        3.8861200000
 C          6.1475000000        2.0071400000        2.7135800000
 H          1.3477100000        0.4463500000       -1.6481400000
 H          2.2529100000        1.7219400000       -1.0886600000
 H          0.8943100000        1.2466800000       -0.2666300000
 H          3.3242700000       -0.3743600000       -0.6558500000
 H          1.8847300000       -0.8665400000        0.2672100000
 H          2.3034800000        0.9704500000        1.9549100000
 H          5.1104200000        0.4912500000        0.7799200000
 H          3.2648600000        0.7733700000        4.0490800000
 H          4.2770100000        1.6767200000        6.0887000000
 H          6.4986100000        2.7704200000        6.0124400000
 H          7.7040500000        2.9743500000        3.8565700000
 H          6.7066100000        2.1004300000        1.7845400000
