  12

 N          1.0815700000       -0.1944000000       -0.1190400000
 C          2.5396200000       -0.3255000000       -0.0868100000
 C          2.9867100000       -0.7038200000        1.3084400000
 Cl         0.0269200000        2.2672600000        0.9186500000
 H          0.6956000000        0.0483700000       -1.0365000000
 H          0.7939000000        0.6708800000        0.4297500000
 H          0.5355800000       -0.9445800000        0.3051100000
 H          2.9624800000        0.6325600000       -0.4016200000
 H          2.8100500000       -1.0981400000       -0.8117400000
 H          2.6562600000        0.0308200000        2.0495000000
 H          4.0792200000       -0.7588500000        1.3514700000
 H          2.5879800000       -1.6817000000        1.5972600000
