34
 xtb: 6.5.1 (fef0646)
N            4.10386596810988       -0.68072034562527       -0.96766916650548
C            4.21061257456451       -0.86147639823190        0.51047816288807
C            3.03397198927577       -0.22850297350469        1.25130968437501
C            1.70474000550458       -0.74615407832019        0.79103575063444
C            1.17155053536760       -1.91043968324667        1.32559867622797
C           -0.03671831608114       -2.39985641529185        0.88200898550104
C            1.00481990601514       -0.09349898064303       -0.21365575376137
C           -0.20150667707489       -0.57957011721910       -0.66196147887529
C           -0.74519728928720       -1.73769553960131       -0.11619353851081
N           -1.98199321031716       -2.21792041424124       -0.54873963435076
N           -3.01664533219129       -1.52587269700497       -0.57910045266211
C           -3.10198640317574       -0.23432190329897       -0.05494363077662
C           -2.79909563495616        0.00759753517778        1.28260870910510
C           -2.85760012523549        1.28516271965468        1.79387739992812
C           -3.22304707856777        2.34095389268566        0.98005284880974
C           -3.53045842106915        2.11476675966335       -0.34869676658044
C           -3.47147743007622        0.83862103766291       -0.86352227542653
Cl           2.95578645127735        2.51096977191306       -1.55185372271999
H            3.92544944504815        0.27110545704745       -1.19592805781854
H            3.33070938001309       -1.26866420989419       -1.32730593866299
H            4.97357240599863       -1.01324143319537       -1.43714670176038
H            5.15255895740994       -0.44188706240241        0.88296564017419
H            4.25783679388349       -1.93934000612436        0.77534313493212
H            3.05877799440084        0.85870322197921        1.10027081281377
H            3.11708214051457       -0.37014617748979        2.33514925707068
H            1.70479047467944       -2.42073515599118        2.10489615408803
H           -0.46111466903305       -3.28908623894678        1.31052240089341
H            1.43143032535387        0.78970373685138       -0.66362998216070
H           -0.73379775966662       -0.07802563718076       -1.45603864548081
H           -2.44903840957450       -0.81132932476945        1.88871874119947
H           -2.55271410099267        1.46979459603744        2.81212503210808
H           -3.26441595826962        3.33956985927435        1.38142654739399
H           -3.87522545508195        2.92800554441753       -0.96493190417476
H           -3.76621573989990        0.64378173274828       -1.87995286507442
