36
 xtb: 6.5.1 (fef0646)
N           -5.08237373641635        0.29694086251174       -0.95813938529237
C           -5.26185236285523        0.14990755534043        0.51601334690874
C           -4.40116086013772        1.13147387955066        1.30887458077498
C           -2.93517993473682        0.97508034595786        1.03347813574659
C           -2.24972168412224        1.91155016920284        0.27259867583806
C           -0.91069785216436        1.74788060730173       -0.00730282258761
C           -0.20813284114460        0.63760639410123        0.46374709264057
C            1.20207223162526        0.48478573224861        0.12894780259341
C            2.02954951114781       -0.43148537531527        0.65630288141170
C            3.43758260360308       -0.59198821351885        0.31410891523264
C            4.05261830125106        0.13954749132187       -0.70480714784780
C            5.38772188244594       -0.04018015207220       -0.99801434424066
C            6.13895717426122       -0.95384112549291       -0.28496511060857
C            5.54926783465587       -1.69011323285111        0.72392269679978
C            4.21492644841722       -1.51245110877383        1.02047032594850
C           -0.90488518549964       -0.30151670255329        1.22571259643377
C           -2.24443418655700       -0.13268649334877        1.50283458339765
Cl          -2.03211133348492       -0.70237070519634       -2.16445572722241
H           -5.75125009625108       -0.31822602550467       -1.46666844978336
H           -4.14814550686892        0.07542080884900       -1.24639011533216
H           -5.30814936610763        1.26973164985253       -1.23764614744890
H           -5.01148247471304       -0.87578427757893        0.81575949315508
H           -6.32451776944204        0.27602472849283        0.80025639048427
H           -4.57483310976620        1.02823044391088        2.38677723743350
H           -4.70639033332659        2.16028479183870        1.06693030621971
H           -2.78758189133392        2.75120199543831       -0.14105180144045
H           -0.39942954844645        2.46572121340996       -0.62699263356125
H            1.60903005604298        1.22042731912485       -0.53769229950241
H            1.62689363662395       -1.15416823549749        1.34636967813994
H            3.48179067515567        0.86217709963553       -1.26350373006021
H            5.85481699765487        0.55988581816552       -1.76269945031465
H            7.18522503007776       -1.08131894669799       -0.50568442235851
H            6.12665730254628       -2.42133905137964        1.26407452933136
H            3.74614359934000       -2.11693694027775        1.77900442703683
H           -0.38968969105252       -1.14986149186234        1.63390764565469
H           -2.76588405745521       -0.84415001075043        2.12014462265111
