13
 xtb: 6.5.1 (fef0646)
N            0.03235004147488       -1.17094951130317        0.83844932932832
C            0.93666347224501       -1.44205229757351       -0.31672232966980
C            1.35322354497476       -0.14988376208679       -1.01547281275132
C            2.05336280295724        0.73873090696029       -0.15456005142644
N            2.59981197890330        1.44380953863810        0.58684820429738
Cl          -2.56767306653663        0.35911403790951       -0.02179921137557
H           -0.12748694207325       -2.09857314186448        1.35381653015712
H           -0.75378631635245       -0.73072949120066        0.60725675878912
H            0.61856745833005       -0.61976848378257        1.54934286799242
H            0.46354056301556       -2.13280261227339       -1.01901428093264
H            1.89231690411820       -1.99106918272778       -0.01476198207619
H            0.45380437115491        0.34230181189101       -1.37548591920389
H            1.97218516914859       -0.35148009762105       -1.90283897301931
