15
 xtb: 6.5.1 (fef0646)
N           -2.34075293663125       -0.20161154818015        0.26583386145131
C           -1.03369007038947       -0.11994988348612       -0.45511591284677
C            0.11673524653261        0.32406310381932        0.44772808205918
C            1.42046740692087        0.44969070117832       -0.27026145863146
C            2.44028026046915       -0.37421935299699       -0.06639464080128
H           -3.08660984116421       -0.58863395176153       -0.32300291995572
H           -2.64743694730282        0.72226177118478        0.61443575680846
H           -2.23823595854181       -0.82316867833243        1.09803948287262
H           -1.16164377347488        0.61416502784337       -1.28612923345632
H           -0.82494801682321       -1.06518769654994       -0.93321041256756
H            0.21398767403824       -0.40794958483317        1.25074383830281
H           -0.09985996084250        1.27108369067135        0.91249246531256
H            1.47763291720023        1.13220831532127       -1.10040158091006
H            2.43849779760973       -1.07299868426671        0.75661526282457
H            3.38315934819430       -0.24536419454150       -0.57427051231985
