33
0.028
N           -5.04436  -1.29222   1.47188
C           -5.46515  -0.08167   0.70833
C           -4.75351   0.04148  -0.63746
C           -3.26831   0.19518  -0.50023
C           -2.41257  -0.86830  -0.76389
C           -1.05378  -0.73265  -0.61060
C           -2.72205   1.40020  -0.07477
C           -1.36409   1.54442   0.08139
C           -0.50352   0.47685  -0.18361
N            0.84283   0.61532  -0.02521
N            1.64047  -0.36842  -0.25265
C            2.98742  -0.22801  -0.10204
C            3.53885   0.98977   0.30286
C            4.89835   1.12675   0.45008
C            5.73434   0.05463   0.19774
C            5.20420  -1.15782  -0.20343
C            3.84550  -1.30249  -0.35325
H           -5.25994  -2.14684   0.94592
H           -5.51889  -1.35006   2.38047
H           -4.03241  -1.27645   1.64445
H           -5.26473   0.81035   1.31232
H           -6.55204  -0.10716   0.56414
H           -5.14662   0.89331  -1.20325
H           -4.97060  -0.84012  -1.24818
H           -2.82369  -1.80624  -1.09571
H           -0.39121  -1.55472  -0.81637
H           -3.37726   2.22910   0.13197
H           -0.94433   2.47884   0.41103
H            2.87702   1.81583   0.49551
H            5.31368   2.07116   0.76232
H            6.80028   0.16416   0.31377
H            5.85855  -1.99161  -0.39943
H            3.42268  -2.24153  -0.66600
