33
 xtb: 6.5.1 (fef0646)
N           -5.04053859946730       -1.26960595398789        1.49149586283462
C           -5.46058243446731       -0.06848319904276        0.71403243533591
C           -4.75522563985265        0.03150125104544       -0.63701409015413
C           -3.26956876284947        0.18584419866363       -0.50281008668525
C           -2.41288924530738       -0.87772730494717       -0.76322203928104
C           -1.05379455857989       -0.73947645936323       -0.61307761745036
C           -2.72356790376584        1.39366954518025       -0.08389453339340
C           -1.36601105896840        1.53933490319097        0.07259015347747
C           -0.50461481823038        0.47014074120819       -0.18438617483370
N            0.84576606404422        0.62654385315035       -0.08357209357162
N            1.63830314418208       -0.38159447620244       -0.22195705083889
C            2.98877600797434       -0.22409756862861       -0.11787257435147
C            3.53315317782393        0.98182459143772        0.33218072545354
C            4.89099690453226        1.11801575726191        0.49523798242788
C            5.73230470659121        0.05670587525042        0.21459683338148
C            5.20871175307796       -1.14558640655961       -0.22588480509638
C            3.85144425462535       -1.29020658394497       -0.38925100211717
H           -5.28572939665951       -2.14400079218584        0.96752062572510
H           -5.49523465581138       -1.32575129424859        2.39867112124559
H           -4.02632267782874       -1.28324376809619        1.62231998245975
H           -5.25944581414690        0.81612299561693        1.30984327796581
H           -6.55118216545722       -0.10115605672429        0.56901533206820
H           -5.14695058947256        0.88828761880045       -1.20654358520490
H           -4.97183313527017       -0.84553389551805       -1.24399783695179
H           -2.82360235999731       -1.80957323154843       -1.09398634750421
H           -0.39101872251265       -1.55630421765556       -0.81797085835193
H           -3.37775494202923        2.22770273059302        0.12721004532541
H           -0.94516600739292        2.47770555695431        0.40791223669192
H            2.87390510431249        1.81004891395474        0.51381661974168
H            5.30991745857563        2.06581148437163        0.78604149676135
H            6.79931063048522        0.16455508585520        0.32228667252610
H            5.86098233262236       -1.98585641580849       -0.41164735583692
H            3.42610288973178       -2.23495796264993       -0.68782377783567
