 xtb: 6.5.1 (fef0646)
          01242310043D

 33 34  0     0  0            999 V2000
   -6.7620    0.4682    0.7692 N   0  0  0  0  0  0  0  0  0  0  0  0
   -5.2850    0.2818    0.8646 C   0  0  0  0  0  0  0  0  0  0  0  0
   -4.6213    0.1449   -0.5014 C   0  0  0  0  0  0  0  0  0  0  0  0
   -3.1353   -0.0485   -0.4167 C   0  0  0  0  0  0  0  0  0  0  0  0
   -2.5898   -1.3246   -0.3263 C   0  0  0  0  0  0  0  0  0  0  0  0
   -1.2294   -1.5061   -0.2237 C   0  0  0  0  0  0  0  0  0  0  0  0
   -2.2783    1.0464   -0.3871 C   0  0  0  0  0  0  0  0  0  0  0  0
   -0.9168    0.8731   -0.2841 C   0  0  0  0  0  0  0  0  0  0  0  0
   -0.3681   -0.4070   -0.2021 C   0  0  0  0  0  0  0  0  0  0  0  0
    0.9815   -0.5835   -0.1009 N   0  0  0  0  0  0  0  0  0  0  0  0
    1.7734    0.4242   -0.0670 N   0  0  0  0  0  0  0  0  0  0  0  0
    3.1249    0.2502    0.0141 C   0  0  0  0  0  0  0  0  0  0  0  0
    3.6793   -1.0313    0.0485 C   0  0  0  0  0  0  0  0  0  0  0  0
    5.0424   -1.2012    0.1294 C   0  0  0  0  0  0  0  0  0  0  0  0
    5.8768   -0.0991    0.1776 C   0  0  0  0  0  0  0  0  0  0  0  0
    5.3428    1.1765    0.1445 C   0  0  0  0  0  0  0  0  0  0  0  0
    3.9807    1.3543    0.0633 C   0  0  0  0  0  0  0  0  0  0  0  0
   -7.1988    0.5605    1.6992 H   0  0  0  0  0  0  0  0  0  0  0  0
   -7.2072   -0.3312    0.2945 H   0  0  0  0  0  0  0  0  0  0  0  0
   -6.9954    1.3157    0.2302 H   0  0  0  0  0  0  0  0  0  0  0  0
   -5.0659   -0.6045    1.4718 H   0  0  0  0  0  0  0  0  0  0  0  0
   -4.8430    1.1261    1.4068 H   0  0  0  0  0  0  0  0  0  0  0  0
   -4.8391    1.0301   -1.1084 H   0  0  0  0  0  0  0  0  0  0  0  0
   -5.0671   -0.6938   -1.0462 H   0  0  0  0  0  0  0  0  0  0  0  0
   -3.2460   -2.1791   -0.3392 H   0  0  0  0  0  0  0  0  0  0  0  0
   -0.8078   -2.4956   -0.1585 H   0  0  0  0  0  0  0  0  0  0  0  0
   -2.6911    2.0399   -0.4476 H   0  0  0  0  0  0  0  0  0  0  0  0
   -0.2511    1.7194   -0.2656 H   0  0  0  0  0  0  0  0  0  0  0  0
    3.0168   -1.8796    0.0094 H   0  0  0  0  0  0  0  0  0  0  0  0
    5.4613   -2.1952    0.1548 H   0  0  0  0  0  0  0  0  0  0  0  0
    6.9454   -0.2345    0.2410 H   0  0  0  0  0  0  0  0  0  0  0  0
    5.9963    2.0342    0.1825 H   0  0  0  0  0  0  0  0  0  0  0  0
    3.5536    2.3432    0.0372 H   0  0  0  0  0  0  0  0  0  0  0  0
  1  2  1  0  0  0  0
  2  3  1  0  0  0  0
  3  4  1  0  0  0  0
  4  5  4  0  0  0  0
  5  6  4  0  0  0  0
  4  7  4  0  0  0  0
  7  8  4  0  0  0  0
  6  9  4  0  0  0  0
  8  9  4  0  0  0  0
  9 10  1  0  0  0  0
 10 11  2  0  0  0  0
 11 12  1  0  0  0  0
 12 13  4  0  0  0  0
 13 14  4  0  0  0  0
 14 15  4  0  0  0  0
 15 16  4  0  0  0  0
 12 17  4  0  0  0  0
 16 17  4  0  0  0  0
  1 18  1  0  0  0  0
  1 19  1  0  0  0  0
  1 20  1  0  0  0  0
  2 21  1  0  0  0  0
  2 22  1  0  0  0  0
  3 23  1  0  0  0  0
  3 24  1  0  0  0  0
  5 25  1  0  0  0  0
  6 26  1  0  0  0  0
  7 27  1  0  0  0  0
  8 28  1  0  0  0  0
 13 29  1  0  0  0  0
 14 30  1  0  0  0  0
 15 31  1  0  0  0  0
 16 32  1  0  0  0  0
 17 33  1  0  0  0  0
M  CHG  1   1   1
M  END
