 xtb: 6.5.1 (fef0646)
          01242314553D

 23 22  0     0  0            999 V2000
    1.9675   -0.9174   -0.8059 N   0  0  0  0  0  0  0  0  0  0  0  0
    2.6914    0.1703   -0.1100 C   0  0  0  0  0  0  0  0  0  0  0  0
    3.1383   -0.2921    1.2391 C   0  0  0  0  0  0  0  0  0  0  0  0
    4.3411   -0.0400    1.7492 C   0  0  0  0  0  0  0  0  0  0  0  0
    4.8304   -0.4327    3.0631 C   0  0  0  0  0  0  0  0  0  0  0  0
    4.0677   -1.1700    3.9713 C   0  0  0  0  0  0  0  0  0  0  0  0
    4.5826   -1.5177    5.2052 C   0  0  0  0  0  0  0  0  0  0  0  0
    5.8672   -1.1391    5.5627 C   0  0  0  0  0  0  0  0  0  0  0  0
    6.6367   -0.4084    4.6725 C   0  0  0  0  0  0  0  0  0  0  0  0
    6.1237   -0.0608    3.4375 C   0  0  0  0  0  0  0  0  0  0  0  0
   -0.2538   -1.9912    1.0087 Cl  0  0  0  0  0  0  0  0  0  0  0  0
    1.5634   -0.5962   -1.6882 H   0  0  0  0  0  0  0  0  0  0  0  0
    1.1836   -1.2675   -0.1970 H   0  0  0  0  0  0  0  0  0  0  0  0
    2.5858   -1.7148   -0.9762 H   0  0  0  0  0  0  0  0  0  0  0  0
    2.0015    1.0077    0.0196 H   0  0  0  0  0  0  0  0  0  0  0  0
    3.5411    0.4967   -0.7107 H   0  0  0  0  0  0  0  0  0  0  0  0
    2.3850   -0.8381    1.7881 H   0  0  0  0  0  0  0  0  0  0  0  0
    5.0536    0.5212    1.1574 H   0  0  0  0  0  0  0  0  0  0  0  0
    3.0648   -1.4753    3.7137 H   0  0  0  0  0  0  0  0  0  0  0  0
    3.9776   -2.0885    5.8954 H   0  0  0  0  0  0  0  0  0  0  0  0
    6.2638   -1.4124    6.5292 H   0  0  0  0  0  0  0  0  0  0  0  0
    7.6386   -0.1101    4.9438 H   0  0  0  0  0  0  0  0  0  0  0  0
    6.7308    0.5095    2.7495 H   0  0  0  0  0  0  0  0  0  0  0  0
  1  2  1  0  0  0  0
  2  3  1  0  0  0  0
  3  4  2  0  0  0  0
  4  5  1  0  0  0  0
  5  6  4  0  0  0  0
  6  7  4  0  0  0  0
  7  8  4  0  0  0  0
  8  9  4  0  0  0  0
  5 10  4  0  0  0  0
  9 10  4  0  0  0  0
  1 12  1  0  0  0  0
  1 13  1  0  0  0  0
  1 14  1  0  0  0  0
  2 15  1  0  0  0  0
  2 16  1  0  0  0  0
  3 17  1  0  0  0  0
  4 18  1  0  0  0  0
  6 19  1  0  0  0  0
  7 20  1  0  0  0  0
  8 21  1  0  0  0  0
  9 22  1  0  0  0  0
 10 23  1  0  0  0  0
M  END
