18
1.014
N           -0.10266  -1.17066  -0.95706
C            0.76197  -1.46358   0.22421
C            1.20280  -0.19786   0.96906
C            2.54858   0.37018   0.50432
C            2.56152   0.83288  -0.94464
Cl          -2.82293   0.71972   0.18531
H           -0.94255  -0.64574  -0.66709
H           -0.41802  -2.03203  -1.43196
H            0.38749  -0.59242  -1.65244
H            1.64149  -2.04121  -0.08381
H            0.20774  -2.12695   0.90157
H            1.25234  -0.40201   2.04750
H            0.42544   0.56780   0.86226
H            3.33087  -0.38447   0.65906
H            2.83389   1.20798   1.15583
H            2.43368  -0.00338  -1.63345
H            3.50239   1.32096  -1.20921
H            1.75855   1.54615  -1.13942
