18
0.396
N           -0.53428  -1.84309  -0.18276
C            0.81872  -1.25528  -0.41124
C            1.21697  -0.28328   0.69299
C            2.62163   0.30288   0.51921
C            2.75356   1.20041  -0.70296
Cl          -2.75467   0.86374   0.06802
H           -0.81376  -2.48264  -0.93948
H           -1.24524  -1.09440  -0.12019
H           -0.56337  -2.36692   0.70223
H            0.83765  -0.74780  -1.38244
H            1.56388  -2.05624  -0.48687
H            1.13896  -0.79491   1.66044
H            0.48322   0.53001   0.74190
H            3.35023  -0.51621   0.46237
H            2.89913   0.86781   1.41985
H            2.57587   0.64935  -1.62791
H            3.74844   1.64502  -0.77907
H            2.03142   2.01839  -0.67151
