18
0.359
N           -0.58492  -1.88359   0.40767
C            0.69645  -1.96561  -0.35324
C            1.72695  -0.93874   0.10826
C            1.31841   0.50533  -0.18367
C            2.37863   1.51318   0.23582
Cl          -2.21034   1.21253  -0.12569
H           -1.25001  -2.61602   0.12224
H           -1.04898  -0.97072   0.26240
H           -0.41843  -1.98584   1.41793
H            0.49756  -1.83277  -1.42327
H            1.10690  -2.97900  -0.25685
H            2.69650  -1.13935  -0.36532
H            1.90419  -1.05685   1.18373
H            0.37146   0.72850   0.32299
H            1.09943   0.61081  -1.25421
H            2.58513   1.44700   1.30574
H            2.07572   2.54084   0.02321
H            3.32144   1.33515  -0.28477
