18
0.419
N           -0.06754  -1.36809  -0.72045
C            0.82153  -1.34410   0.47750
C            1.13401   0.07275   0.95158
C            1.86544   0.92996  -0.08487
C            3.23787   0.38806  -0.45695
Cl          -2.85268   0.62666   0.00542
H           -0.92507  -0.82232  -0.54291
H           -0.34990  -2.32790  -0.97707
H            0.39616  -0.95064  -1.53910
H            1.75069  -1.88151   0.25629
H            0.34830  -1.91282   1.28842
H            1.73280   0.03300   1.87045
H            0.19585   0.56366   1.24021
H            1.96800   1.95619   0.29454
H            1.24474   1.02701  -0.98435
H            3.75972   1.04180  -1.15964
H            3.16876  -0.59574  -0.92356
H            3.87277   0.28272   0.42473
