28
0.772
N           -2.53592  -0.29530   0.42696
C           -2.52062   1.17915   0.21161
C           -1.38650   1.86164   0.97244
C           -0.03166   1.39125   0.53167
C            0.63969   0.42932   1.23651
C            1.89771  -0.05299   0.80909
C            2.60564  -1.04518   1.52570
C            3.81623  -1.48907   1.08474
C            4.37943  -0.96841  -0.08862
C            3.72353  -0.01185  -0.80408
C            2.46575   0.47162  -0.37583
C            1.75318   1.45971  -1.09187
C            0.54243   1.90054  -0.64960
Cl          -5.11253  -1.77694  -1.44590
H           -1.64477  -0.71594   0.12934
H           -3.29379  -0.75521  -0.10405
H           -2.66656  -0.52199   1.42567
H           -3.48883   1.60280   0.50592
H           -2.42004   1.38854  -0.85977
H           -1.50095   1.67758   2.04612
H           -1.44339   2.94998   0.85434
H            0.20352   0.02534   2.13305
H            2.17315  -1.44582   2.42691
H            4.34713  -2.24578   1.63958
H            5.33805  -1.32977  -0.42461
H            4.15630   0.38741  -1.70582
H            2.18100   1.85858  -1.99610
H            0.00376   2.64940  -1.20582
