  46

 N         -8.2448846231       -1.9755742021        1.0125911492
 C         -6.9761520418       -1.2596547800        1.0377811284
 C         -6.5366895454       -0.7927334479       -0.3473659427
 C         -5.2482997889       -0.0517726358       -0.3206510172
 C         -5.1074963027        1.2972990694       -0.2715888194
 C         -3.7574035100        1.7330198118       -0.2382465981
 C         -2.8466667258        0.7135637986       -0.2571380502
 C         -1.4130006751        0.8481232877       -0.2238686208
 C         -0.7067365579        2.0202242841       -0.1908853015
 C          0.7035132463        1.8637828109       -0.1531105524
 C          1.6303907214        3.0275201498       -0.1122995995
 C          1.0988578139        0.5425770723       -0.1538263544
 C          2.4378925265        0.0161425215       -0.1087343061
 C          2.7436159114       -1.3190979741       -0.1478626121
 C          4.1241071742       -1.6052492234       -0.0826060659
 C          4.9217640272       -0.4944253890        0.0074771602
 C          6.3642065588       -0.4500534125        0.1002068930
 C          7.2739591282       -1.4062422354       -0.2937075308
 C          6.9348420528       -2.7032292541       -0.9423416199
 C          8.6237797904       -1.0290059073       -0.0220288200
 C          8.7525410086        0.1901127481        0.5456570861
 S          7.2109988611        0.9246013075        0.7699826964
 S          3.9186655710        0.9333742916        0.0112890676
 S         -0.3052675072       -0.4924496639       -0.2155264704
 S         -3.6863441509       -0.8152148363       -0.3241611254
 Cl       -10.2448568262        0.5116779323        0.0587462842
 H         -8.4663436638       -2.3502551250        1.9299546843
 H         -8.1716431901       -2.7735408378        0.3914064532
 H         -9.4475853342       -0.4899286600        0.4459071462
 H         -6.1910289392       -1.8868705926        1.4808689096
 H         -7.0720025956       -0.3913730281        1.7005997523
 H         -7.3139055381       -0.1619896155       -0.7915148679
 H         -6.4414490469       -1.6561019756       -1.0146360081
 H         -5.9489890307        1.9724541494       -0.2552115085
 H         -3.4758061961        2.7730510853       -0.1959552818
 H         -1.1790735455        2.9889112705       -0.1910257838
 H          1.0835258697        3.9695759274       -0.1546586639
 H          2.3202516812        3.0025628152       -0.9563982927
 H          2.2185551845        3.0218312823        0.8058739344
 H          1.9844999659       -2.0823552778       -0.2159776014
 H          4.5065418465       -2.6123170119       -0.0659432753
 H          6.1439537348       -2.5765851746       -1.6820274704
 H          6.6081564655       -3.4357278275       -0.2035514231
 H          7.8013680124       -3.1176917877       -1.4581901912
 H          9.4617234340       -1.6671039014       -0.2579682783
 H          9.6792532207        0.6548015104        0.8239653610
          46
        -73.46409880
 N         -7.8955542874        0.8793442628       -0.9637006224
 C         -7.9656176782       -0.4449597497       -0.3618649322
 C         -7.3099433712       -0.5007591032        1.0176231981
 C         -5.8646156730       -0.1606308728        0.9752484456
 C         -5.3272339660        1.0550444039        1.2509613866
 C         -3.9164420955        1.1028767204        1.1112379823
 C         -3.3603523139       -0.0817863707        0.7206908401
 C         -1.9587837063       -0.3144209019        0.4929700702
 C         -1.4053183603       -1.4936267939        0.0774070866
 C          0.0057645337       -1.4683863604       -0.0688930303
 C          0.7782584102       -2.6602833795       -0.5132788109
 C          0.5569231802       -0.2429802353        0.2436608283
 C          1.9458838315        0.1342556969        0.2190877867
 C          2.4114499985        1.3916079595        0.5029206961
 C          3.8142822362        1.5237118210        0.4235542528
 C          4.4710168246        0.3726414704        0.0777713842
 C          5.9034159212        0.2617327134       -0.0587243016
 C          6.6376955543       -0.8561345085       -0.3824839053
 C          6.0649248538       -2.2018017915       -0.6605363120
 C          8.0417844502       -0.6010898898       -0.4264557403
 C          8.3790768161        0.6767364857       -0.1449357975
 S          6.9767469320        1.6198372787        0.1862616473
 S          3.3003469176       -0.9002158531       -0.1598797224
 S         -0.7047214306        0.8716957321        0.7068786058
 S         -4.6126642843       -1.2835116523        0.5336496950
 Cl        -4.8054745262        1.1964240643       -2.2096081047
 H         -8.2566223689        1.5671955771       -0.3115091626
 H         -8.4910929293        0.9305689124       -1.7855933319
 H         -6.0348954771        1.0658262988       -1.7007182934
 H         -7.4635290261       -1.1546330279       -1.0314200917
 H         -9.0107920232       -0.7758483950       -0.2980364046
 H         -7.4264021627       -1.4974838864        1.4585610438
 H         -7.8219110115        0.1884299306        1.6980449948
 H         -5.9233119010        1.9069030437        1.5390561436
 H         -3.3301963643        1.9914820927        1.2832357244
 H         -1.9976848969       -2.3715786968       -0.1223393228
 H          0.1180622556       -3.4989305527       -0.7350090497
 H          1.4772805251       -2.9790187429        0.2605388779
 H          1.3495456165       -2.4367642167       -1.4148086866
 H          1.7543028167        2.2053057925        0.7663490535
 H          4.3334333565        2.4480092232        0.6208494420
 H          5.5074021170       -2.5704584477        0.2008472314
 H          6.8481641854       -2.9258955567       -0.8875042598
 H          5.3859014650       -2.1646949843       -1.5126004991
 H          8.7628209843       -1.3684061837       -0.6636005449
 H          9.3781205331        1.0687693477       -0.1251616946
          46
        -73.46516157
 N         -7.3286972629       -0.1001265698       -1.1351310652
 C         -7.5417176328        0.1214788315        0.2852621689
 C         -6.9125268427        1.4223216474        0.7824156858
 C         -5.4508572755        1.4748605128        0.5172455084
 C         -4.8321186475        2.3013431102       -0.3647837748
 C         -3.4277669439        2.1145258649       -0.4373244656
 C         -2.9571863918        1.1385608786        0.3940998738
 C         -1.5818725975        0.7326387547        0.5157966574
 C         -1.1082354688       -0.2327040229        1.3605475265
 C          0.2909359085       -0.4556412981        1.2829245600
 C          0.9803590658       -1.4696561542        2.1263545267
 C          0.9132685282        0.3514923462        0.3532258357
 C          2.3084594192        0.3811886821        0.0000994500
 C          2.8571397010        1.2442064933       -0.9122539941
 C          4.2457320844        1.0814867248       -1.1044466069
 C          4.8077848709        0.0880192181       -0.3475365290
 C          6.2062799963       -0.2668121685       -0.3789782904
 C          6.8404739726       -1.2672893361        0.3213203818
 C          6.1726598089       -2.1983538242        1.2717229752
 C          8.2395190630       -1.3340506996        0.0444369746
 C          8.6701839113       -0.4123692535       -0.8448297632
 S          7.3660302081        0.5779094514       -1.3778980751
 S          3.5666216477       -0.6510711226        0.6324666878
 S         -0.2625512714        1.3986553835       -0.4015934124
 S         -4.2838420792        0.4450119665        1.2921067571
 Cl        -8.7888626181       -3.0681237689       -1.5244266029
 H         -6.3324130575       -0.0855357196       -1.3215335278
 H         -7.7148339835        0.6773308542       -1.6602591739
 H         -8.1999106280       -1.8767760015       -1.3739002437
 H         -7.1206100279       -0.7294886097        0.8358719485
 H         -8.6186891268        0.1015476866        0.4936707364
 H         -7.0864252799        1.5495713707        1.8569304446
 H         -7.3977901151        2.2759581405        0.2966949950
 H         -5.3646248151        3.0251977494       -0.9619475115
 H         -2.7838388313        2.6821782933       -1.0900934915
 H         -1.7506947157       -0.7813266122        2.0297894755
 H          0.2853473737       -1.9479838807        2.8166491088
 H          1.7730285273       -1.0081873430        2.7160914607
 H          1.4279331667       -2.2480375190        1.5076336115
 H          2.2690917113        1.9802238340       -1.4374240929
 H          4.8221460070        1.6814004276       -1.7904584416
 H          5.3746498883       -2.7511552371        0.7754294731
 H          5.7360848687       -1.6506790614        2.1076175870
 H          6.8789388278       -2.9227648352        1.6777680975
 H          8.8880215582       -2.0609945419        0.5090907329
 H          9.6817904169       -0.2975220122       -1.1848566338
