18
0.834
N           -0.41719  -1.15054   0.34852
C            0.66763  -0.23462  -0.11285
C            2.05438  -0.83670   0.07935
C            3.18748   0.05024  -0.44661
C            3.33555   1.35751   0.31874
Cl          -3.55361   0.38083  -0.11219
H           -0.39682  -2.03729  -0.17287
H           -1.35544  -0.73090   0.22082
H           -0.30788  -1.37636   1.34643
H            0.59393   0.71872   0.42271
H            0.51627   0.01408  -1.17017
H            2.08576  -1.81770  -0.41102
H            2.21522  -1.04548   1.14355
H            3.01921   0.25740  -1.51140
H            4.13562  -0.50392  -0.41154
H            4.17871   1.95060  -0.04291
H            3.49655   1.17566   1.38291
H            2.44321   1.97912   0.22952
