17
2.988
N           -2.11991  -2.29227   0.66363
C           -2.92289  -1.04248   0.80315
C           -2.41453   0.11173  -0.07555
C           -1.56206   1.15337   0.66961
C           -0.23434   0.64195   1.19584
I            1.07886   0.20936  -0.38177
H           -2.15805  -2.64998  -0.30195
H           -2.47314  -3.04040   1.27894
H           -1.12880  -2.14308   0.89888
H           -2.94559  -0.73253   1.85509
H           -3.96615  -1.28150   0.55366
H           -3.26909   0.62051  -0.54240
H           -1.84274  -0.30137  -0.91368
H           -2.15342   1.56427   1.50128
H           -1.36857   2.01097   0.00801
H           -0.34859  -0.24816   1.81448
H            0.28837   1.39320   1.79277
