 xtb: 6.5.1 (fef0646)
          01232313593D

 46 48  0     0  0            999 V2000
    1.3940   -2.7392    1.3877 N   0  0  0  0  0  0  0  0  0  0  0  0
    2.6572   -2.0715    1.6885 C   0  0  0  0  0  0  0  0  0  0  0  0
    3.5943   -2.1561    0.4769 C   0  0  0  0  0  0  0  0  0  0  0  0
    4.8492   -1.3967    0.7283 C   0  0  0  0  0  0  0  0  0  0  0  0
    5.1930   -0.1580    0.2777 C   0  0  0  0  0  0  0  0  0  0  0  0
    6.4376    0.2882    0.7548 C   0  0  0  0  0  0  0  0  0  0  0  0
    7.0549   -0.6143    1.5849 C   0  0  0  0  0  0  0  0  0  0  0  0
    8.3113   -0.4866    2.2473 C   0  0  0  0  0  0  0  0  0  0  0  0
    9.1431    0.6067    2.2790 C   0  0  0  0  0  0  0  0  0  0  0  0
   10.3165    0.4214    3.0269 C   0  0  0  0  0  0  0  0  0  0  0  0
   11.3480    1.4852    3.1926 C   0  0  0  0  0  0  0  0  0  0  0  0
   10.3941   -0.8435    3.5805 C   0  0  0  0  0  0  0  0  0  0  0  0
   11.4046   -1.4323    4.3908 C   0  0  0  0  0  0  0  0  0  0  0  0
   11.4306   -2.7234    4.8693 C   0  0  0  0  0  0  0  0  0  0  0  0
   12.5539   -3.0165    5.6472 C   0  0  0  0  0  0  0  0  0  0  0  0
   13.4171   -1.9547    5.7847 C   0  0  0  0  0  0  0  0  0  0  0  0
   14.6484   -1.8623    6.5063 C   0  0  0  0  0  0  0  0  0  0  0  0
   15.5103   -2.8582    6.9110 C   0  0  0  0  0  0  0  0  0  0  0  0
   15.3441   -4.3158    6.6342 C   0  0  0  0  0  0  0  0  0  0  0  0
   16.6253   -2.3413    7.6111 C   0  0  0  0  0  0  0  0  0  0  0  0
   16.6147   -0.9897    7.7306 C   0  0  0  0  0  0  0  0  0  0  0  0
   15.2352   -0.2902    6.9882 S   0  0  0  0  0  0  0  0  0  0  0  0
   12.8165   -0.5644    4.9250 S   0  0  0  0  0  0  0  0  0  0  0  0
    8.9909   -1.7965    3.1646 S   0  0  0  0  0  0  0  0  0  0  0  0
    6.0750   -2.0410    1.7739 S   0  0  0  0  0  0  0  0  0  0  0  0
    0.2018   -1.4841   -0.9841 Cl  0  0  0  0  0  0  0  0  0  0  0  0
    0.7416   -2.6542    2.1591 H   0  0  0  0  0  0  0  0  0  0  0  0
    1.5439   -3.7238    1.1922 H   0  0  0  0  0  0  0  0  0  0  0  0
    0.7532   -2.0690    0.1256 H   0  0  0  0  0  0  0  0  0  0  0  0
    3.1619   -2.5016    2.5655 H   0  0  0  0  0  0  0  0  0  0  0  0
    2.4368   -1.0227    1.9007 H   0  0  0  0  0  0  0  0  0  0  0  0
    3.0837   -1.7399   -0.3921 H   0  0  0  0  0  0  0  0  0  0  0  0
    3.8244   -3.2055    0.2763 H   0  0  0  0  0  0  0  0  0  0  0  0
    4.5709    0.4161   -0.3856 H   0  0  0  0  0  0  0  0  0  0  0  0
    6.8685    1.2372    0.4934 H   0  0  0  0  0  0  0  0  0  0  0  0
    8.9116    1.5293    1.7779 H   0  0  0  0  0  0  0  0  0  0  0  0
   11.0515    2.3787    2.6495 H   0  0  0  0  0  0  0  0  0  0  0  0
   12.3142    1.1496    2.8165 H   0  0  0  0  0  0  0  0  0  0  0  0
   11.4748    1.7399    4.2446 H   0  0  0  0  0  0  0  0  0  0  0  0
   10.6478   -3.4310    4.6586 H   0  0  0  0  0  0  0  0  0  0  0  0
   12.7049   -3.9691    6.1183 H   0  0  0  0  0  0  0  0  0  0  0  0
   14.9559   -4.4768    5.6302 H   0  0  0  0  0  0  0  0  0  0  0  0
   14.6531   -4.7674    7.3470 H   0  0  0  0  0  0  0  0  0  0  0  0
   16.3027   -4.8206    6.7277 H   0  0  0  0  0  0  0  0  0  0  0  0
   17.4091   -2.9647    8.0044 H   0  0  0  0  0  0  0  0  0  0  0  0
   17.3340   -0.3556    8.2093 H   0  0  0  0  0  0  0  0  0  0  0  0
  1  2  1  0  0  0  0
  2  3  1  0  0  0  0
  3  4  1  0  0  0  0
  4  5  2  0  0  0  0
  5  6  4  0  0  0  0
  6  7  4  0  0  0  0
  7  8  1  0  0  0  0
  8  9  4  0  0  0  0
  9 10  4  0  0  0  0
 10 11  1  0  0  0  0
 10 12  4  0  0  0  0
 12 13  1  0  0  0  0
 13 14  4  0  0  0  0
 14 15  4  0  0  0  0
 15 16  4  0  0  0  0
 16 17  1  0  0  0  0
 17 18  4  0  0  0  0
 18 19  1  0  0  0  0
 18 20  4  0  0  0  0
 20 21  2  0  0  0  0
 17 22  1  0  0  0  0
 21 22  1  0  0  0  0
 13 23  1  0  0  0  0
 16 23  1  0  0  0  0
  8 24  1  0  0  0  0
 12 24  1  0  0  0  0
  4 25  1  0  0  0  0
  7 25  1  0  0  0  0
  1 27  1  0  0  0  0
  1 28  1  0  0  0  0
 26 29  1  0  0  0  0
  2 30  1  0  0  0  0
  2 31  1  0  0  0  0
  3 32  1  0  0  0  0
  3 33  1  0  0  0  0
  5 34  1  0  0  0  0
  6 35  1  0  0  0  0
  9 36  1  0  0  0  0
 11 37  1  0  0  0  0
 11 38  1  0  0  0  0
 11 39  1  0  0  0  0
 14 40  1  0  0  0  0
 15 41  1  0  0  0  0
 19 42  1  0  0  0  0
 19 43  1  0  0  0  0
 19 44  1  0  0  0  0
 20 45  1  0  0  0  0
 21 46  1  0  0  0  0
M  END
