18
1.929
N           -2.57438  -1.98432   0.32424
C           -1.64714  -2.45677  -0.74405
C           -0.68708  -1.36755  -1.21374
C            0.27745  -0.89794  -0.12292
C            1.25465   0.15810  -0.60614
Br           2.45648   0.77261   0.77537
Cl          -3.96447   1.02669  -0.81552
H           -3.29121  -2.68971   0.55624
H           -3.05940  -1.12585   0.02227
H           -2.06596  -1.76001   1.18973
H           -2.23591  -2.82734  -1.59250
H           -1.07942  -3.32141  -0.38132
H           -1.26123  -0.51023  -1.58279
H           -0.10943  -1.72004  -2.07699
H            0.83399  -1.75481   0.27563
H           -0.28483  -0.50169   0.73044
H            0.72634   1.03448  -0.98641
H            1.86906  -0.22162  -1.42470
