27
1.555
N           -3.75515  -0.58681   0.25289
C           -2.65071   0.41595   0.15462
C           -1.44592  -0.07006  -0.66836
C           -0.67478  -1.23247   0.01125
C            0.13709  -0.77064   1.23309
C            1.11197   0.37320   0.86471
C            2.20949  -0.12639  -0.05094
O            2.87982   0.81011  -0.74773
O            2.44639  -1.30907  -0.12453
C            0.35195   1.54877   0.20950
C           -0.46722   1.08767  -1.00875
H           -4.07585  -0.86803  -0.67994
H           -4.56007  -0.20213   0.75976
H           -3.45221  -1.43104   0.75058
H           -2.32461   0.69913   1.15944
H           -3.05040   1.33163  -0.29531
H           -1.85124  -0.45278  -1.61997
H            0.01212  -1.68794  -0.71297
H           -1.36790  -2.03191   0.29480
H            0.71634  -1.61248   1.63472
H           -0.53328  -0.45344   2.03911
H            1.60335   0.73295   1.78266
H            3.56874   0.39748  -1.27672
H            1.07869   2.31307  -0.09604
H           -0.30247   2.03161   0.94367
H            0.21975   0.76658  -1.80028
H           -1.02513   1.93225  -1.43112
