27
0.595
N           -3.79562   0.21402   0.88145
C           -3.25249  -0.01328  -0.49185
C           -1.71627  -0.05818  -0.57549
C           -1.09944  -1.22107   0.23621
C            0.42447  -1.29457   0.03145
C            1.11475   0.03837   0.39596
C            2.59706  -0.04967   0.11562
O            2.98653   0.22716  -1.14234
O            3.35362  -0.38141   0.99741
C            0.47726   1.21970  -0.36745
C           -1.04815   1.27432  -0.16319
H           -3.47279   1.10783   1.26972
H           -3.51147  -0.53323   1.52539
H           -4.82209   0.23669   0.87192
H           -3.62885   0.77551  -1.15269
H           -3.66477  -0.95107  -0.88075
H           -1.44353  -0.23241  -1.62951
H           -1.57848  -2.17032  -0.03191
H           -1.31134  -1.06898   1.29884
H            0.65132  -1.52986  -1.01421
H            0.86237  -2.11228   0.61769
H            0.99692   0.21139   1.47561
H            3.93967   0.13218  -1.22286
H            0.71320   1.11082  -1.43203
H            0.95048   2.16102  -0.06132
H           -1.49007   2.11055  -0.71796
H           -1.26096   1.47044   0.89201
