17
0.001
N           -2.05638  -0.44027  -0.44733
C           -1.32606   0.40765   0.53957
C            0.10886   0.73306   0.12465
C            1.04825  -0.47680   0.12545
C            2.48690  -0.12511  -0.23333
H           -1.61700  -1.36497  -0.55827
H           -2.08325   0.00737  -1.37477
H           -3.03252  -0.60123  -0.15709
H           -1.32702  -0.09227   1.51612
H           -1.89364   1.33695   0.68485
H            0.52083   1.50279   0.78957
H            0.10193   1.18873  -0.87218
H            0.66966  -1.23483  -0.57076
H            1.01958  -0.95553   1.11263
H            2.90844   0.59398   0.47209
H            2.55153   0.32104  -1.22775
H            3.13612  -1.00433  -0.22783
