20
 xtb: 6.5.1 (fef0646)
N           -3.10398922466376       -0.10084190505119       -0.25049813028305
C           -1.82745043607029        0.22488097999566        0.45430960235397
C           -0.59233132084034       -0.14377521607180       -0.36029222260977
C            0.72218313769281        0.20805244027094        0.34211332848116
C            1.96128343797805       -0.26639148313940       -0.42733225012208
C            3.26605120890654        0.09549961868329        0.27125298394214
H           -3.09766071286903       -1.09545734689243       -0.54320493895292
H           -3.22395476253949        0.48095126366764       -1.09180343410424
H           -3.91841035362989        0.04671489411119        0.36891948766806
H           -1.80280097194706       -0.27192126572699        1.42237769850463
H           -1.80907112095886        1.30655268027155        0.67341365473699
H           -0.62026976177311        0.34627567574227       -1.33082421170439
H           -0.62632728427259       -1.22317762563731       -0.57970769688465
H            0.73952420997995       -0.30482735115531        1.33758831826835
H            0.76444746831352        1.25545317787921        0.56462158269447
H            1.94004075932568        0.25219100140363       -1.42474170037687
H            1.91101094213199       -1.31010801201414       -0.65366917723884
H            3.32430956533491       -0.41258989167586        1.23744160134927
H            3.35483180194370        1.16324061930641        0.45995560908374
H            4.13684797172156       -0.21271715217572       -0.31141638896817
