28
 xtb: 6.5.1 (fef0646)
N           -2.30771013877533       -2.03257386331382       -0.27674854642055
C           -0.96466002953620       -1.66911109500724        0.27072148251044
C           -0.35015891222880       -0.46175823491815       -0.42671343043904
C            1.02732185357559       -0.06312062089013        0.13608477265956
C            1.51519436599991        1.28040681176251       -0.45793746300575
C            2.87572380028526        1.69673418222372        0.12735656809097
C            3.93204251902731        0.60084236962445       -0.09739860911553
C            3.46286599118691       -0.74263328000289        0.48656075627223
C            2.09971361681972       -1.15482323954547       -0.09625676566663
Cl          -4.28347679118169        1.23346394016334        0.16534922925800
H           -2.33099275479266       -2.15847000358194       -1.25958470835497
H           -2.96936815186162       -1.11183679232820       -0.14429161593939
H           -2.80493435073561       -2.72428334784698        0.23383741733339
H           -0.36192741273870       -2.52909924778122        0.15418278819466
H           -1.04343948252187       -1.45283307102310        1.34584628289740
H           -1.03058057659717        0.41293207679705       -0.36434336053169
H           -0.25743128460165       -0.65143405834199       -1.50244592555821
H            0.91821617782786        0.07982188939156        1.22308743503613
H            0.76646192390367        2.06928434040186       -0.30093156081333
H            1.60239837066261        1.17710852936937       -1.54546068412750
H            2.77048408166690        1.88050092433315        1.20356230478891
H            3.21520275775719        2.65081801191200       -0.29969941686761
H            4.89954495841414        0.88771609718030        0.33228445233809
H            4.11161336087244        0.47962704192483       -1.17240187017656
H            3.37264552146875       -0.65759733092250        1.57787335474505
H            4.20354849228552       -1.53273247378842        0.31555849159793
H            1.76079050942011       -2.10967093661494        0.32747535449879
H            2.18794283997129       -1.32873784933682       -1.17257979442686
