 xtb: 6.5.1 (fef0646)
          01232314143D

 21 19  0     0  0            999 V2000
    0.9986   -0.2371    0.1774 N   0  0  0  0  0  0  0  0  0  0  0  0
    2.4578   -0.2814    0.2691 C   0  0  0  0  0  0  0  0  0  0  0  0
    3.0574   -0.3502   -1.1338 C   0  0  0  0  0  0  0  0  0  0  0  0
    4.5790   -0.2075   -1.1419 C   0  0  0  0  0  0  0  0  0  0  0  0
    5.2951   -1.4278   -0.5477 C   0  0  0  0  0  0  0  0  0  0  0  0
    6.8006   -1.2519   -0.6303 C   0  0  0  0  0  0  0  0  0  0  0  0
    7.3158   -1.3355   -1.8698 O   0  0  0  0  0  0  0  0  0  0  0  0
    7.5021   -1.0410    0.3138 O   0  0  0  0  0  0  0  0  0  0  0  0
    0.1859    2.0056   -1.5383 Cl  0  0  0  0  0  0  0  0  0  0  0  0
    0.5766   -0.1241    1.0922 H   0  0  0  0  0  0  0  0  0  0  0  0
    0.6371   -1.0859   -0.2454 H   0  0  0  0  0  0  0  0  0  0  0  0
    0.5586    0.9663   -0.7261 H   0  0  0  0  0  0  0  0  0  0  0  0
    2.8009   -1.1312    0.8742 H   0  0  0  0  0  0  0  0  0  0  0  0
    2.7832    0.6397    0.7574 H   0  0  0  0  0  0  0  0  0  0  0  0
    2.6246    0.4604   -1.7204 H   0  0  0  0  0  0  0  0  0  0  0  0
    2.7732   -1.2940   -1.6054 H   0  0  0  0  0  0  0  0  0  0  0  0
    4.8621    0.6815   -0.5758 H   0  0  0  0  0  0  0  0  0  0  0  0
    4.9044   -0.0565   -2.1745 H   0  0  0  0  0  0  0  0  0  0  0  0
    5.0024   -2.3329   -1.0873 H   0  0  0  0  0  0  0  0  0  0  0  0
    5.0341   -1.5436    0.5033 H   0  0  0  0  0  0  0  0  0  0  0  0
    6.6427   -1.5076   -2.5413 H   0  0  0  0  0  0  0  0  0  0  0  0
  1  2  1  0  0  0  0
  2  3  1  0  0  0  0
  3  4  1  0  0  0  0
  4  5  1  0  0  0  0
  5  6  1  0  0  0  0
  6  7  1  0  0  0  0
  6  8  2  0  0  0  0
  1 10  1  0  0  0  0
  1 11  1  0  0  0  0
  9 12  1  0  0  0  0
  2 13  1  0  0  0  0
  2 14  1  0  0  0  0
  3 15  1  0  0  0  0
  3 16  1  0  0  0  0
  4 17  1  0  0  0  0
  4 18  1  0  0  0  0
  5 19  1  0  0  0  0
  5 20  1  0  0  0  0
  7 21  1  0  0  0  0
M  END
