  22

 N         -2.9069247466       -1.6038640392       -0.6268764957
 C         -1.5049734346       -1.2455428128       -0.7939881446
 C         -0.8694594806       -0.7486049878        0.5009293673
 C          0.5665464999       -0.3524252922        0.3312863601
 C          0.8989174776        0.9065873137       -0.1448714970
 C          2.2179020365        1.2642573297       -0.3265876563
 C          3.2318190365        0.3692261782       -0.0412496344
 F          4.5299001308        0.7199739425       -0.2239639231
 C          2.9065031984       -0.8899591567        0.4263653722
 C          1.5876346203       -1.2489164767        0.6070605775
 Cl        -4.0850461265        1.4012615779        0.2171610237
 H         -3.2865846579       -1.9942345618       -1.4835464989
 H         -3.6302519272        0.1913808938       -0.1252313362
 H         -2.9935683820       -2.3265076613        0.0788619091
 H         -1.4284526195       -0.4649520321       -1.5600660807
 H         -0.9349350029       -2.0999402202       -1.1821850366
 H         -0.9487778218       -1.5218860519        1.2717360577
 H         -1.4373233828        0.1028898672        0.8887200844
 H          0.1129003481        1.6061194210       -0.3736987539
 H          2.4812816113        2.2407626906       -0.6933885367
 H          3.7026514558       -1.5802902360        0.6432918757
 H          1.3409569769       -2.2342195524        0.9646233702
          22
        -34.92694980
 N         -1.8382566578        0.2911728625        0.7867364419
 C         -1.6034778984        1.2010316914       -0.3215798791
 C         -0.2928787678        1.9749436839       -0.1926487994
 C          0.9018168531        1.0727032499       -0.1236179553
 C          1.4074778257        0.4843010282       -1.2726162516
 C          2.4802590114       -0.3791395138       -1.2076299293
 C          3.0669550854       -0.6773220359        0.0077360109
 F          4.1203888709       -1.5301229649        0.0720571432
 C          2.5635839913       -0.0989298103        1.1574826591
 C          1.4910830508        0.7650169319        1.0933083575
 Cl        -4.7863146187       -1.0070122396       -0.0747130479
 H         -1.0698571547       -0.3675294443        0.8520125324
 H         -3.6032215108       -0.4927060249        0.2774932199
 H         -1.8316397577        0.8097779126        1.6582525167
 H         -2.4555056018        1.8875880232       -0.4017316530
 H         -1.6063951343        0.6219697173       -1.2537210381
 H         -0.3233981334        2.6015273432        0.7045605593
 H         -0.1711937175        2.6685768177       -1.0318304325
 H          0.9504122643        0.7068822244       -2.2218161795
 H          2.8771638460       -0.8366798243       -2.0967849593
 H          3.0255575976       -0.3390294764        2.0989751692
 H          1.1009565069        1.2068226253        1.9945035600
