  22

 N          1.0398780371       -0.5460124397        0.0500544338
 C          2.4896857666       -0.6368042495        0.2094758877
 C          2.9514666072        0.3071248633        1.3240486786
 C          4.4513574074        0.3428164144        1.3924645551
 C          5.1670621990        1.1572039006        0.5220805981
 C          6.5490689754        1.1786865699        0.5434735413
 C          7.2110354863        0.3709760236        1.4502303490
 F          8.5609823871        0.3845104379        1.4791289393
 C          6.5288489841       -0.4489953433        2.3288400070
 C          5.1457255934       -0.4575156251        2.2901709154
 Cl         0.3428534736        2.2424048834       -0.5619731698
 H          0.7144842974       -1.1351467466       -0.7086786063
 H          0.6580126228        0.9388966860       -0.2801650556
 H          0.5646828273       -0.8188210186        0.9044276371
 H          2.9459338083       -0.3323386530       -0.7347761456
 H          2.8230519933       -1.6596842881        0.4344621302
 H          2.5395846714       -0.0307943091        2.2762499945
 H          2.5612088530        1.3019100073        1.1121666417
 H          4.6340016189        1.7854807789       -0.1753760471
 H          7.1134957224        1.8089432145       -0.1251594592
 H          7.0766478862       -1.0631296774        3.0257334963
 H          4.6016007820       -1.0920114293        2.9742806783
