  15

 N         -2.2123323766        0.6205358547       -0.3837598997
 C         -1.6366383416       -0.5557333026        0.3342334799
 C         -0.2170280034       -0.8731769857       -0.1002434570
 S          0.9131602001        0.4483126275        0.3205171434
 C          2.4041651382       -0.2289331726       -0.3464561385
 H         -3.1646509629        0.8221534729       -0.0653653407
 H         -2.2417877990        0.4492998254       -1.3927610809
 H         -1.6388702332        1.4538853118       -0.2206687426
 H         -2.2880535303       -1.4251561639        0.1739402670
 H         -1.6514898907       -0.3591385604        1.4137601682
 H         -0.1765068160       -1.0282533622       -1.1797546489
 H          0.1430749363       -1.7899535507        0.3729032809
 H          3.2225217404        0.4674412803       -0.1787039533
 H          2.3021154291       -0.3928078103       -1.4165479824
 H          2.6443620741       -1.1713201968        0.1401977082
          15
        -17.34951719
 N         -2.1320987359       -0.3425456427       -0.5880546720
 C         -1.4074523854        0.7396201714        0.1426712619
 C         -0.2788921164        0.2085059111        1.0089252995
 S          0.9925805828       -0.6317379574        0.0688103020
 C          1.8836106585        0.7559016278       -0.5711981597
 H         -2.8753127774        0.0398602529       -1.1801595588
 H         -2.5540092761       -1.0027807504        0.0710106442
 H         -1.4858947798       -0.8674529377       -1.1853744202
 H         -2.1269820150        1.2979789027        0.7561463980
 H         -1.0132508733        1.4596122636       -0.5839255741
 H         -0.6701819469       -0.5145815303        1.7276928458
 H          0.1902468780        1.0040201118        1.5928989967
 H          2.2617245595        1.3728460638        0.2408839003
 H          1.2508600621        1.3597026016       -1.2167880014
 H          2.7288921158        0.3992384582       -1.1555314848
