 xtb: 6.5.1 (fef0646)
          01232319323D

 39 42  0     0  0            999 V2000
    3.3162   -1.6779    1.4854 N   0  0  0  0  0  0  0  0  0  0  0  0
    2.6433   -0.9033    0.4059 C   0  0  0  0  0  0  0  0  0  0  0  0
    3.6024    0.1797   -0.0990 C   0  0  0  0  0  0  0  0  0  0  0  0
    4.8263   -0.4284   -0.6989 C   0  0  0  0  0  0  0  0  0  0  0  0
    5.1329   -0.6283   -2.0078 C   0  0  0  0  0  0  0  0  0  0  0  0
    6.3462   -1.3119   -2.2093 C   0  0  0  0  0  0  0  0  0  0  0  0
    6.9905   -1.6638   -1.0517 C   0  0  0  0  0  0  0  0  0  0  0  0
    8.2162   -2.3515   -0.8744 C   0  0  0  0  0  0  0  0  0  0  0  0
    8.8651   -2.6641    0.3024 C   0  0  0  0  0  0  0  0  0  0  0  0
   10.0656   -3.3407    0.1092 C   0  0  0  0  0  0  0  0  0  0  0  0
   10.3630   -3.5633   -1.2230 C   0  0  0  0  0  0  0  0  0  0  0  0
   11.5011   -4.2163   -1.7637 C   0  0  0  0  0  0  0  0  0  0  0  0
   12.5588   -4.7835   -1.0797 C   0  0  0  0  0  0  0  0  0  0  0  0
   13.5199   -5.3449   -1.9172 C   0  0  0  0  0  0  0  0  0  0  0  0
   13.2223   -5.2205   -3.2584 C   0  0  0  0  0  0  0  0  0  0  0  0
   13.9839   -5.6764   -4.3702 C   0  0  0  0  0  0  0  0  0  0  0  0
   13.7036   -5.5405   -5.7091 C   0  0  0  0  0  0  0  0  0  0  0  0
   14.6837   -6.1134   -6.5352 C   0  0  0  0  0  0  0  0  0  0  0  0
   15.7002   -6.6806   -5.8289 C   0  0  0  0  0  0  0  0  0  0  0  0
   15.4861   -6.5290   -4.1355 S   0  0  0  0  0  0  0  0  0  0  0  0
   11.7155   -4.3899   -3.4856 S   0  0  0  0  0  0  0  0  0  0  0  0
    9.1236   -2.9172   -2.2530 S   0  0  0  0  0  0  0  0  0  0  0  0
    6.0867   -1.0976    0.3369 S   0  0  0  0  0  0  0  0  0  0  0  0
    2.8256   -2.5491    1.7067 H   0  0  0  0  0  0  0  0  0  0  0  0
    3.3971   -1.1109    2.3368 H   0  0  0  0  0  0  0  0  0  0  0  0
    4.3004   -1.8781    1.1528 H   0  0  0  0  0  0  0  0  0  0  0  0
    1.7226   -0.4638    0.7895 H   0  0  0  0  0  0  0  0  0  0  0  0
    2.4009   -1.5871   -0.4086 H   0  0  0  0  0  0  0  0  0  0  0  0
    3.8682    0.8481    0.7229 H   0  0  0  0  0  0  0  0  0  0  0  0
    3.0907    0.7702   -0.8587 H   0  0  0  0  0  0  0  0  0  0  0  0
    4.5102   -0.2883   -2.8156 H   0  0  0  0  0  0  0  0  0  0  0  0
    6.7510   -1.5433   -3.1772 H   0  0  0  0  0  0  0  0  0  0  0  0
    8.4771   -2.3989    1.2716 H   0  0  0  0  0  0  0  0  0  0  0  0
   10.7043   -3.6579    0.9120 H   0  0  0  0  0  0  0  0  0  0  0  0
   12.6306   -4.7887   -0.0074 H   0  0  0  0  0  0  0  0  0  0  0  0
   14.4141   -5.8306   -1.5685 H   0  0  0  0  0  0  0  0  0  0  0  0
   12.8210   -5.0438   -6.0729 H   0  0  0  0  0  0  0  0  0  0  0  0
   14.6390   -6.1063   -7.6092 H   0  0  0  0  0  0  0  0  0  0  0  0
   16.5701   -7.1825   -6.2036 H   0  0  0  0  0  0  0  0  0  0  0  0
  1  2  1  0  0  0  0
  2  3  1  0  0  0  0
  3  4  1  0  0  0  0
  4  5  2  0  0  0  0
  5  6  4  0  0  0  0
  6  7  2  0  0  0  0
  7  8  1  0  0  0  0
  8  9  4  0  0  0  0
  9 10  4  0  0  0  0
 10 11  4  0  0  0  0
 11 12  1  0  0  0  0
 12 13  4  0  0  0  0
 13 14  4  0  0  0  0
 14 15  4  0  0  0  0
 15 16  1  0  0  0  0
 16 17  4  0  0  0  0
 17 18  4  0  0  0  0
 18 19  2  0  0  0  0
 16 20  1  0  0  0  0
 19 20  1  0  0  0  0
 12 21  1  0  0  0  0
 15 21  1  0  0  0  0
  8 22  1  0  0  0  0
 11 22  1  0  0  0  0
  4 23  1  0  0  0  0
  7 23  1  0  0  0  0
  1 24  1  0  0  0  0
  1 25  1  0  0  0  0
  1 26  1  0  0  0  0
  2 27  1  0  0  0  0
  2 28  1  0  0  0  0
  3 29  1  0  0  0  0
  3 30  1  0  0  0  0
  5 31  1  0  0  0  0
  6 32  1  0  0  0  0
  9 33  1  0  0  0  0
 10 34  1  0  0  0  0
 13 35  1  0  0  0  0
 14 36  1  0  0  0  0
 17 37  1  0  0  0  0
 18 38  1  0  0  0  0
 19 39  1  0  0  0  0
M  CHG  1   1   1
M  END
