29
1.184
N           -2.86974  -1.62917   0.61345
C           -3.16942  -0.45751  -0.26190
C           -1.92069   0.31060  -0.68759
C           -1.21840   1.02058   0.47086
C           -0.05539   1.91619   0.03022
C            1.09770   1.17268  -0.65102
C            1.80760   0.16873   0.25876
C            2.98920  -0.52603  -0.42143
C            3.69084  -1.52594   0.48621
H           -2.42852  -1.33353   1.49127
H           -2.23023  -2.27908   0.14315
H           -3.72351  -2.14536   0.85362
H           -3.85834   0.21711   0.25840
H           -3.71302  -0.80923  -1.14710
H           -2.18200   1.05109  -1.45261
H           -1.22508  -0.37848  -1.17658
H           -0.86218   0.28225   1.19560
H           -1.95642   1.61987   1.01727
H            0.33814   2.46053   0.89681
H           -0.44173   2.68998  -0.64380
H            1.83449   1.89510  -1.02241
H            0.73250   0.65912  -1.54655
H            1.09669  -0.58751   0.60709
H            2.15390   0.67687   1.16555
H            3.70308   0.23049  -0.76880
H            2.63868  -1.02723  -1.33172
H            3.00565  -2.30816   0.81453
H            4.07943  -1.03986   1.38161
H            4.52965  -2.01244  -0.01408
