 xtb: 6.5.1 (fef0646)
          01242314573D

 21 21  0     0  0            999 V2000
    2.8621   -0.1872    3.7733 N   0  0  0  0  0  0  0  0  0  0  0  0
    2.4930   -1.0173    2.6014 C   0  0  0  0  0  0  0  0  0  0  0  0
    3.0421   -0.3874    1.3225 C   0  0  0  0  0  0  0  0  0  0  0  0
    4.5484   -0.3590    1.3220 C   0  0  0  0  0  0  0  0  0  0  0  0
    5.2708   -1.5389    1.1781 C   0  0  0  0  0  0  0  0  0  0  0  0
    6.6538   -1.5311    1.1891 C   0  0  0  0  0  0  0  0  0  0  0  0
    7.3235   -0.3284    1.3448 C   0  0  0  0  0  0  0  0  0  0  0  0
    9.0789   -0.3091    1.3430 Cl  0  0  0  0  0  0  0  0  0  0  0  0
    6.6269    0.8583    1.4890 C   0  0  0  0  0  0  0  0  0  0  0  0
    5.2420    0.8346    1.4817 C   0  0  0  0  0  0  0  0  0  0  0  0
    2.5467   -0.6236    4.6465 H   0  0  0  0  0  0  0  0  0  0  0  0
    2.4401    0.7457    3.6972 H   0  0  0  0  0  0  0  0  0  0  0  0
    3.8827   -0.0753    3.8059 H   0  0  0  0  0  0  0  0  0  0  0  0
    1.4081   -1.0915    2.5407 H   0  0  0  0  0  0  0  0  0  0  0  0
    2.9097   -2.0157    2.7289 H   0  0  0  0  0  0  0  0  0  0  0  0
    2.6549    0.6238    1.2045 H   0  0  0  0  0  0  0  0  0  0  0  0
    2.6968   -0.9757    0.4730 H   0  0  0  0  0  0  0  0  0  0  0  0
    4.7548   -2.4762    1.0394 H   0  0  0  0  0  0  0  0  0  0  0  0
    7.2116   -2.4457    1.0707 H   0  0  0  0  0  0  0  0  0  0  0  0
    7.1623    1.7868    1.6010 H   0  0  0  0  0  0  0  0  0  0  0  0
    4.7080    1.7673    1.5783 H   0  0  0  0  0  0  0  0  0  0  0  0
  1  2  1  0  0  0  0
  2  3  1  0  0  0  0
  3  4  1  0  0  0  0
  4  5  4  0  0  0  0
  5  6  4  0  0  0  0
  6  7  4  0  0  0  0
  7  8  1  0  0  0  0
  7  9  4  0  0  0  0
  4 10  4  0  0  0  0
  9 10  4  0  0  0  0
  1 11  1  0  0  0  0
  1 12  1  0  0  0  0
  1 13  1  0  0  0  0
  2 14  1  0  0  0  0
  2 15  1  0  0  0  0
  3 16  1  0  0  0  0
  3 17  1  0  0  0  0
  5 18  1  0  0  0  0
  6 19  1  0  0  0  0
  9 20  1  0  0  0  0
 10 21  1  0  0  0  0
M  CHG  1   1   1
M  END
