 xtb: 6.5.1 (fef0646)
          01232314303D

 22 21  0     0  0            999 V2000
    2.7673   -0.6160   -0.9118 N   0  0  0  0  0  0  0  0  0  0  0  0
    1.9060    0.2150   -0.0617 C   0  0  0  0  0  0  0  0  0  0  0  0
    0.5299    0.4684   -0.6875 C   0  0  0  0  0  0  0  0  0  0  0  0
    2.6210    1.5107    0.2441 C   0  0  0  0  0  0  0  0  0  0  0  0
    2.9959    1.8114    1.5459 C   0  0  0  0  0  0  0  0  0  0  0  0
    3.6550    2.9929    1.8343 C   0  0  0  0  0  0  0  0  0  0  0  0
    3.9498    3.8888    0.8217 C   0  0  0  0  0  0  0  0  0  0  0  0
    3.5827    3.5964   -0.4802 C   0  0  0  0  0  0  0  0  0  0  0  0
    2.9232    2.4150   -0.7663 C   0  0  0  0  0  0  0  0  0  0  0  0
    5.2837   -1.0941    0.5074 Cl  0  0  0  0  0  0  0  0  0  0  0  0
    4.1071   -0.8768   -0.1583 H   0  0  0  0  0  0  0  0  0  0  0  0
    2.9880   -0.1367   -1.7786 H   0  0  0  0  0  0  0  0  0  0  0  0
    2.3192   -1.4998   -1.1280 H   0  0  0  0  0  0  0  0  0  0  0  0
    1.7699   -0.3396    0.8733 H   0  0  0  0  0  0  0  0  0  0  0  0
    0.6270    0.9541   -1.6558 H   0  0  0  0  0  0  0  0  0  0  0  0
   -0.0588    1.1124   -0.0401 H   0  0  0  0  0  0  0  0  0  0  0  0
   -0.0049   -0.4697   -0.8213 H   0  0  0  0  0  0  0  0  0  0  0  0
    2.7762    1.1116    2.3384 H   0  0  0  0  0  0  0  0  0  0  0  0
    3.9442    3.2123    2.8513 H   0  0  0  0  0  0  0  0  0  0  0  0
    4.4664    4.8104    1.0447 H   0  0  0  0  0  0  0  0  0  0  0  0
    3.8118    4.2895   -1.2764 H   0  0  0  0  0  0  0  0  0  0  0  0
    2.6440    2.2027   -1.7890 H   0  0  0  0  0  0  0  0  0  0  0  0
  1  2  1  0  0  0  0
  2  3  1  0  0  0  0
  2  4  1  0  0  0  0
  4  5  4  0  0  0  0
  5  6  4  0  0  0  0
  6  7  4  0  0  0  0
  7  8  4  0  0  0  0
  4  9  4  0  0  0  0
  8  9  4  0  0  0  0
 10 11  1  0  0  0  0
  1 12  1  0  0  0  0
  1 13  1  0  0  0  0
  2 14  1  0  0  0  0
  3 15  1  0  0  0  0
  3 16  1  0  0  0  0
  3 17  1  0  0  0  0
  5 18  1  0  0  0  0
  6 19  1  0  0  0  0
  7 20  1  0  0  0  0
  8 21  1  0  0  0  0
  9 22  1  0  0  0  0
M  END
