 xtb: 6.5.1 (fef0646)
          01242310043D

 24 24  0     0  0            999 V2000
   -2.9481   -0.6557    0.2718 N   0  0  0  0  0  0  0  0  0  0  0  0
   -2.0120    0.3975   -0.2187 C   0  0  0  0  0  0  0  0  0  0  0  0
   -0.5552    0.1810    0.2233 C   0  0  0  0  0  0  0  0  0  0  0  0
    0.3253    1.4208   -0.0791 C   0  0  0  0  0  0  0  0  0  0  0  0
    1.7795    1.2173    0.3825 C   0  0  0  0  0  0  0  0  0  0  0  0
    2.3938   -0.0455   -0.2459 C   0  0  0  0  0  0  0  0  0  0  0  0
    1.5317   -1.2869    0.0421 C   0  0  0  0  0  0  0  0  0  0  0  0
    0.0764   -1.0802   -0.4166 C   0  0  0  0  0  0  0  0  0  0  0  0
   -2.9275   -0.7229    1.2998 H   0  0  0  0  0  0  0  0  0  0  0  0
   -2.7135   -1.5845   -0.1067 H   0  0  0  0  0  0  0  0  0  0  0  0
   -3.9213   -0.4537   -0.0028 H   0  0  0  0  0  0  0  0  0  0  0  0
   -2.3602    1.3736    0.1390 H   0  0  0  0  0  0  0  0  0  0  0  0
   -2.0569    0.4497   -1.3119 H   0  0  0  0  0  0  0  0  0  0  0  0
   -0.5559    0.0327    1.3142 H   0  0  0  0  0  0  0  0  0  0  0  0
   -0.1085    2.3157    0.3838 H   0  0  0  0  0  0  0  0  0  0  0  0
    0.3063    1.6128   -1.1574 H   0  0  0  0  0  0  0  0  0  0  0  0
    1.8065    1.1306    1.4753 H   0  0  0  0  0  0  0  0  0  0  0  0
    2.3869    2.1014    0.1460 H   0  0  0  0  0  0  0  0  0  0  0  0
    3.4208   -0.1959    0.1140 H   0  0  0  0  0  0  0  0  0  0  0  0
    2.4834    0.0931   -1.3300 H   0  0  0  0  0  0  0  0  0  0  0  0
    1.5480   -1.4994    1.1177 H   0  0  0  0  0  0  0  0  0  0  0  0
    1.9642   -2.1762   -0.4361 H   0  0  0  0  0  0  0  0  0  0  0  0
   -0.5274   -1.9669   -0.1906 H   0  0  0  0  0  0  0  0  0  0  0  0
    0.0460   -0.9766   -1.5067 H   0  0  0  0  0  0  0  0  0  0  0  0
  1  2  1  0  0  0  0
  2  3  1  0  0  0  0
  3  4  1  0  0  0  0
  4  5  1  0  0  0  0
  5  6  1  0  0  0  0
  6  7  1  0  0  0  0
  3  8  1  0  0  0  0
  7  8  1  0  0  0  0
  1  9  1  0  0  0  0
  1 10  1  0  0  0  0
  1 11  1  0  0  0  0
  2 12  1  0  0  0  0
  2 13  1  0  0  0  0
  3 14  1  0  0  0  0
  4 15  1  0  0  0  0
  4 16  1  0  0  0  0
  5 17  1  0  0  0  0
  5 18  1  0  0  0  0
  6 19  1  0  0  0  0
  6 20  1  0  0  0  0
  7 21  1  0  0  0  0
  7 22  1  0  0  0  0
  8 23  1  0  0  0  0
  8 24  1  0  0  0  0
M  CHG  1   1   1
M  END
