18
 xtb: 6.5.1 (fef0646)
N            0.13363722393902       -1.08750834742398       -0.88570904109606
C           -0.82483648168033       -1.35981541065935        0.22894162632419
C           -1.21470649543820       -0.08631010279437        0.99130601923660
C           -2.50885669543349        0.57459490310243        0.50348784427874
C           -2.46016482860115        1.04111407257238       -0.94264904749133
Cl           2.71738474521076        0.39419371680605        0.12440127190166
H           -0.39095069648575       -0.51875550379881       -1.62439827259287
H            0.29963744825437       -2.01537501710479       -1.40620347517696
H            0.92462085153177       -0.67699720300760       -0.61420318107310
H           -0.37199254043598       -2.09268206793705        0.91196861177040
H           -1.77823561599483       -1.89079737605545       -0.09822129012286
H           -0.38816021036408        0.60880289396863        0.90163306188678
H           -1.31008096417030       -0.30705436640095        2.06150037849023
H           -2.73984704380381        1.43504192283820        1.15347804246117
H           -3.35530756722641       -0.11217240353057        0.64317234341149
H           -3.35950771201587        1.61069496828394       -1.21983680959971
H           -2.40062509419762        0.19978275921897       -1.63388945501000
H           -1.60220423135106        1.68587679421062       -1.12612064990805
