18
 xtb: 6.5.1 (fef0646)
N           -0.00507775617123       -1.23856065109650       -0.99826869249663
C            0.82320383074612       -1.49305473162435        0.21661601459038
C            1.22251435628413       -0.20838315791747        0.95352097112720
C            2.56780431276401        0.37854185861929        0.51021413080319
C            2.60502321649316        0.81994508577745       -0.94544149317276
Cl          -2.99773572981974        0.80259758642272        0.22895717430109
H           -0.91993117952496       -0.66714031251075       -0.68739758811740
H           -0.38385230762781       -2.05419780716229       -1.44159131371655
H            0.41720642630449       -0.61184457031524       -1.66229178171689
H            1.66444047248585       -2.04699873936484       -0.07617709085236
H            0.22314013245458       -2.13498328775643        0.89790479224007
H            1.25262340175411       -0.40069142007630        2.04407521222628
H            0.42775765563206        0.56038512685566        0.85060552376305
H            3.33958027270262       -0.37709396943915        0.66912172282487
H            2.83069987697749        1.21470571479754        1.15576369921249
H            2.45606629039036       -0.01080028803632       -1.63103615550457
H            3.51398394109747        1.32148329252050       -1.20509923937319
H            1.76855705372034        1.53717987586654       -1.14807935342176
