 xtb: 6.5.1 (fef0646)
          02032320313D

 18 16  0     0  0            999 V2000
   -0.1027   -1.1707   -0.9571 N   0  0  0  0  0  0  0  0  0  0  0  0
    0.7620   -1.4636    0.2242 C   0  0  0  0  0  0  0  0  0  0  0  0
    1.2028   -0.1979    0.9691 C   0  0  0  0  0  0  0  0  0  0  0  0
    2.5486    0.3702    0.5043 C   0  0  0  0  0  0  0  0  0  0  0  0
    2.5615    0.8329   -0.9447 C   0  0  0  0  0  0  0  0  0  0  0  0
   -2.8229    0.7197    0.1853 Cl  0  0  0  0  0  0  0  0  0  0  0  0
   -0.9426   -0.6457   -0.6671 H   0  0  0  0  0  0  0  0  0  0  0  0
   -0.4180   -2.0320   -1.4320 H   0  0  0  0  0  0  0  0  0  0  0  0
    0.3875   -0.5924   -1.6524 H   0  0  0  0  0  0  0  0  0  0  0  0
    1.6415   -2.0412   -0.0838 H   0  0  0  0  0  0  0  0  0  0  0  0
    0.2077   -2.1269    0.9016 H   0  0  0  0  0  0  0  0  0  0  0  0
    1.2523   -0.4020    2.0475 H   0  0  0  0  0  0  0  0  0  0  0  0
    0.4254    0.5678    0.8623 H   0  0  0  0  0  0  0  0  0  0  0  0
    3.3309   -0.3845    0.6590 H   0  0  0  0  0  0  0  0  0  0  0  0
    2.8339    1.2080    1.1558 H   0  0  0  0  0  0  0  0  0  0  0  0
    2.4337   -0.0034   -1.6335 H   0  0  0  0  0  0  0  0  0  0  0  0
    3.5024    1.3209   -1.2092 H   0  0  0  0  0  0  0  0  0  0  0  0
    1.7586    1.5461   -1.1394 H   0  0  0  0  0  0  0  0  0  0  0  0
  1  2  1  0  0  0  0
  2  3  1  0  0  0  0
  3  4  1  0  0  0  0
  4  5  1  0  0  0  0
  1  7  1  0  0  0  0
  1  8  1  0  0  0  0
  1  9  1  0  0  0  0
  2 10  1  0  0  0  0
  2 11  1  0  0  0  0
  3 12  1  0  0  0  0
  3 13  1  0  0  0  0
  4 14  1  0  0  0  0
  4 15  1  0  0  0  0
  5 16  1  0  0  0  0
  5 17  1  0  0  0  0
  5 18  1  0  0  0  0
M  END
