29
 xtb: 6.5.1 (fef0646)
N            3.71615359871375       -1.09651179475200       -1.61653065008884
C            2.25870797916570       -1.32209753238460       -1.35304178200653
C            1.93803309750008       -1.43729160857186        0.13324756850323
O            0.53949158540470       -1.56744258674546        0.37772381539174
C           -0.21185465105291       -0.40258430538756        0.23291109411385
C            0.31173859577779        0.86155892354899        0.02293458769564
C           -0.51210116077210        1.97659701454218       -0.11240144596677
C           -1.87005685108125        1.85904675774432       -0.03868638794248
C           -2.46701126359734        0.59978771991306        0.17916012119245
C           -3.86814868375587        0.43753024465709        0.26419785835740
C           -4.41380681046917       -0.79452129024244        0.47326871226111
C           -3.59153326655113       -1.91866191594404        0.60673472903085
C           -2.23464066623314       -1.79283163327607        0.52959675657829
C           -1.63743235876244       -0.53778187671341        0.31614063424281
Cl           3.70060132574017        2.23045480488361        0.23702989643886
H            3.94069854630600       -0.08747762416141       -1.09935572414978
H            3.94347471947159       -0.88548165717211       -2.55731029824284
H            4.32543198979797       -1.70026454035921       -1.15474316160291
H            2.01498425786913       -2.23643417104565       -1.86437778537495
H            1.64862141783887       -0.53568136865597       -1.79556476192279
H            2.31840806706040       -0.60217457509492        0.72475858667217
H            2.41179774463862       -2.33551338727897        0.55750698277284
H            1.37525782245029        0.99556844085425       -0.03426838148030
H           -0.06584147385265        2.94236439841177       -0.27555863291331
H           -2.49778527701275        2.72680395192055       -0.14072819085541
H           -4.50036571968286        1.30578217843193        0.16355071147960
H           -5.48626049420754       -0.90233759386286        0.53927012249924
H           -4.03906692920368       -2.88541132672536        0.77213575169376
H           -1.60069456804517       -2.65496381617248        0.62852454144906
