19
1.389
N           -0.87046  -1.76222   0.62298
C           -0.44920  -1.81830  -0.80396
C           -0.21350  -0.42914  -1.39854
C            0.98615   0.27239  -0.85249
C            1.78576   1.12163  -1.54998
C            2.85535   1.67390  -0.77948
C            2.86795   1.24634   0.50356
S            1.56464   0.15085   0.78203
Cl          -3.83574   0.00197   0.85866
H           -1.76623  -1.24769   0.72565
H           -0.16355  -1.25129   1.16799
H           -0.98663  -2.69919   1.04313
H           -1.21097  -2.35773  -1.38146
H            0.46788  -2.41282  -0.89425
H           -1.09627   0.19604  -1.22228
H           -0.11316  -0.49846  -2.48900
H            1.62117   1.35967  -2.59066
H            3.57870   2.36756  -1.18480
H            3.58018   1.53574   1.25432
