 xtb: 6.5.1 (fef0646)
          01242310043D

 28 27  0     0  0            999 V2000
   -2.6374    1.0127    0.2821 N   0  0  0  0  0  0  0  0  0  0  0  0
   -1.8871   -0.1520   -0.2599 C   0  0  0  0  0  0  0  0  0  0  0  0
   -0.3768    0.1013   -0.3583 C   0  0  0  0  0  0  0  0  0  0  0  0
    0.3410   -1.0320   -1.1307 C   0  0  0  0  0  0  0  0  0  0  0  0
    1.8488   -0.7624   -1.2554 C   0  0  0  0  0  0  0  0  0  0  0  0
    2.5049   -0.5626    0.1237 C   0  0  0  0  0  0  0  0  0  0  0  0
    3.9726   -0.2404   -0.0304 C   0  0  0  0  0  0  0  0  0  0  0  0
    4.8530   -1.1054    0.5222 O   0  0  0  0  0  0  0  0  0  0  0  0
    4.3024    0.7601   -0.6302 O   0  0  0  0  0  0  0  0  0  0  0  0
    1.7884    0.5513    0.9109 C   0  0  0  0  0  0  0  0  0  0  0  0
    0.2794    0.2836    1.0310 C   0  0  0  0  0  0  0  0  0  0  0  0
   -6.0639    0.3891    0.2768 Cl  0  0  0  0  0  0  0  0  0  0  0  0
   -2.4647    1.8597   -0.2827 H   0  0  0  0  0  0  0  0  0  0  0  0
   -2.3576    1.2267    1.2511 H   0  0  0  0  0  0  0  0  0  0  0  0
   -3.6620    0.8431    0.2869 H   0  0  0  0  0  0  0  0  0  0  0  0
   -2.2797   -0.4059   -1.2516 H   0  0  0  0  0  0  0  0  0  0  0  0
   -2.0663   -1.0346    0.3635 H   0  0  0  0  0  0  0  0  0  0  0  0
   -0.2259    1.0361   -0.9206 H   0  0  0  0  0  0  0  0  0  0  0  0
   -0.1174   -1.1689   -2.1180 H   0  0  0  0  0  0  0  0  0  0  0  0
    0.1794   -1.9767   -0.5994 H   0  0  0  0  0  0  0  0  0  0  0  0
    2.0208    0.1406   -1.8520 H   0  0  0  0  0  0  0  0  0  0  0  0
    2.3551   -1.5704   -1.7985 H   0  0  0  0  0  0  0  0  0  0  0  0
    2.4286   -1.5018    0.6911 H   0  0  0  0  0  0  0  0  0  0  0  0
    5.7473   -0.7587    0.3366 H   0  0  0  0  0  0  0  0  0  0  0  0
    1.9608    1.5020    0.3940 H   0  0  0  0  0  0  0  0  0  0  0  0
    2.2522    0.6697    1.8984 H   0  0  0  0  0  0  0  0  0  0  0  0
   -0.2135    1.0908    1.5862 H   0  0  0  0  0  0  0  0  0  0  0  0
    0.1120   -0.6238    1.6218 H   0  0  0  0  0  0  0  0  0  0  0  0
  1  2  1  0  0  0  0
  2  3  1  0  0  0  0
  3  4  1  0  0  0  0
  4  5  1  0  0  0  0
  5  6  1  0  0  0  0
  6  7  1  0  0  0  0
  7  8  1  0  0  0  0
  7  9  2  0  0  0  0
  6 10  1  0  0  0  0
  3 11  1  0  0  0  0
 10 11  1  0  0  0  0
  1 13  1  0  0  0  0
  1 14  1  0  0  0  0
  1 15  1  0  0  0  0
  2 16  1  0  0  0  0
  2 17  1  0  0  0  0
  3 18  1  0  0  0  0
  4 19  1  0  0  0  0
  4 20  1  0  0  0  0
  5 21  1  0  0  0  0
  5 22  1  0  0  0  0
  6 23  1  0  0  0  0
  8 24  1  0  0  0  0
 10 25  1  0  0  0  0
 10 26  1  0  0  0  0
 11 27  1  0  0  0  0
 11 28  1  0  0  0  0
M  END
