41
 xtb: 6.5.1 (fef0646)
N           -1.67506827759772       -2.50044243217960        0.17357447694896
C           -3.00074054891197       -1.81694115443928        0.03984819477611
C           -3.20759875773691       -0.71916353942783        1.07877658696027
C           -2.22951167913716        0.45284866037508        0.95716804309686
C           -2.36349853658143        1.22976888772930       -0.35447043730092
C           -1.54229759320031        2.52190725484443       -0.39217498109675
C           -0.02738623511680        2.31861736643333       -0.29385081271356
C            0.56443057601955        1.52570123187019       -1.46118631391573
C            2.09614035713149        1.53146033752830       -1.49276127838699
C            2.76286563175140        0.87439730734388       -0.28058970553550
C            2.49884312547704       -0.62824374258509       -0.16682943851977
C            3.25138841486903       -1.28041194662735        0.99515928723401
C            3.02837919287430       -2.78222227856809        1.08396110339452
H           -1.65042754360820       -2.90755273159742        1.11339032467110
H           -0.96705708045443       -1.86312465273994        0.01219865412946
H           -1.67101802690428       -3.27825199752350       -0.50818348251751
H           -3.87419295863633       -2.54443673750210        0.12717907657656
H           -3.16250582908521       -1.39137557514958       -0.97006017572889
H           -3.18725007973723       -1.14829195140958        2.07950206304577
H           -4.27492585383275       -0.30274932108614        1.01162350288889
H           -1.23716332092035        0.07412721008575        1.08681589787116
H           -2.40722058526760        1.15226555199921        1.78850293726830
H           -3.42047750035423        1.45664304180257       -0.54429105276063
H           -2.07302367331422        0.57039980175524       -1.19404398932911
H           -1.87721701027505        3.16567248279151        0.41553182295948
H           -1.75277222712596        3.05774152521539       -1.31780800864867
H            0.21485212168815        1.80186894559284        0.66165933510087
H            0.47489264064652        3.27362652869930       -0.22682306514426
H            0.18138690718423        1.91830835700297       -2.39155309494372
H            0.21729532749111        0.47432299181919       -1.42420977584573
H            2.43858347602677        2.57469403114776       -1.57879851799146
H            2.46211716692822        1.03930561919764       -2.39997319675764
H            2.45028094040934        1.37397619953207        0.64447245958289
H            3.86435536636920        1.06901855119652       -0.31802597807978
H            2.84017413049790       -1.10610258559005       -1.10990726624796
H            1.47647066925199       -0.82778306565321       -0.06395695593564
H            3.00320941092726       -0.79119387043319        1.93187845304545
H            4.37737926886964       -1.03862129632009        0.89276269593733
H            2.05267487110382       -3.02226053942446        1.21124080766609
H            3.65798531791177       -3.21174640920289        1.90856422119478
H            3.44177754990680       -3.26691218564023        0.16318440295811
