 xtb: 6.5.1 (fef0646)
          01242310053D

 36 36  0     0  0            999 V2000
   -4.7155    2.0302   -0.6104 N   0  0  0  0  0  0  0  0  0  0  0  0
   -5.0308    1.6865    0.8043 C   0  0  0  0  0  0  0  0  0  0  0  0
   -4.5098    0.3034    1.1853 C   0  0  0  0  0  0  0  0  0  0  0  0
   -3.0373    0.1509    0.9423 C   0  0  0  0  0  0  0  0  0  0  0  0
   -2.1135    0.5504    1.8971 C   0  0  0  0  0  0  0  0  0  0  0  0
   -0.7593    0.4424    1.6589 C   0  0  0  0  0  0  0  0  0  0  0  0
   -0.2833   -0.0656    0.4499 C   0  0  0  0  0  0  0  0  0  0  0  0
    1.1414   -0.1940    0.1626 C   0  0  0  0  0  0  0  0  0  0  0  0
    2.1223   -0.1123    1.0721 C   0  0  0  0  0  0  0  0  0  0  0  0
    3.5459   -0.2421    0.7819 C   0  0  0  0  0  0  0  0  0  0  0  0
    4.0458   -0.1968   -0.5192 C   0  0  0  0  0  0  0  0  0  0  0  0
    5.3976   -0.3194   -0.7748 C   0  0  0  0  0  0  0  0  0  0  0  0
    5.8588   -0.2677   -2.0494 F   0  0  0  0  0  0  0  0  0  0  0  0
    6.2751   -0.4911    0.2816 C   0  0  0  0  0  0  0  0  0  0  0  0
    5.8042   -0.5343    1.5779 C   0  0  0  0  0  0  0  0  0  0  0  0
    4.4539   -0.4094    1.8285 C   0  0  0  0  0  0  0  0  0  0  0  0
   -1.2180   -0.4482   -0.5118 C   0  0  0  0  0  0  0  0  0  0  0  0
   -2.5701   -0.3407   -0.2681 C   0  0  0  0  0  0  0  0  0  0  0  0
   -5.3015   -0.8192   -2.5348 Cl  0  0  0  0  0  0  0  0  0  0  0  0
   -5.1677    2.9080   -0.9159 H   0  0  0  0  0  0  0  0  0  0  0  0
   -5.0209    1.2702   -1.2462 H   0  0  0  0  0  0  0  0  0  0  0  0
   -3.6985    2.1383   -0.7432 H   0  0  0  0  0  0  0  0  0  0  0  0
   -6.1147    1.7415    0.9645 H   0  0  0  0  0  0  0  0  0  0  0  0
   -4.5936    2.4444    1.4657 H   0  0  0  0  0  0  0  0  0  0  0  0
   -5.0442   -0.4613    0.6103 H   0  0  0  0  0  0  0  0  0  0  0  0
   -4.7286    0.0839    2.2372 H   0  0  0  0  0  0  0  0  0  0  0  0
   -2.4677    0.9530    2.8321 H   0  0  0  0  0  0  0  0  0  0  0  0
   -0.0617    0.7707    2.4104 H   0  0  0  0  0  0  0  0  0  0  0  0
    1.4030   -0.3979   -0.8611 H   0  0  0  0  0  0  0  0  0  0  0  0
    1.8583    0.0329    2.1052 H   0  0  0  0  0  0  0  0  0  0  0  0
    3.3866   -0.0469   -1.3543 H   0  0  0  0  0  0  0  0  0  0  0  0
    7.3258   -0.5870    0.0696 H   0  0  0  0  0  0  0  0  0  0  0  0
    6.4944   -0.6669    2.3962 H   0  0  0  0  0  0  0  0  0  0  0  0
    4.0870   -0.4455    2.8410 H   0  0  0  0  0  0  0  0  0  0  0  0
   -0.8701   -0.8348   -1.4558 H   0  0  0  0  0  0  0  0  0  0  0  0
   -3.2815   -0.6291   -1.0253 H   0  0  0  0  0  0  0  0  0  0  0  0
  1  2  1  0  0  0  0
  2  3  1  0  0  0  0
  3  4  1  0  0  0  0
  4  5  4  0  0  0  0
  5  6  4  0  0  0  0
  6  7  4  0  0  0  0
  7  8  1  0  0  0  0
  8  9  2  0  0  0  0
  9 10  1  0  0  0  0
 10 11  4  0  0  0  0
 11 12  4  0  0  0  0
 12 13  1  0  0  0  0
 12 14  4  0  0  0  0
 14 15  4  0  0  0  0
 10 16  4  0  0  0  0
 15 16  4  0  0  0  0
  7 17  4  0  0  0  0
  4 18  4  0  0  0  0
 17 18  4  0  0  0  0
  1 20  1  0  0  0  0
  1 21  1  0  0  0  0
  1 22  1  0  0  0  0
  2 23  1  0  0  0  0
  2 24  1  0  0  0  0
  3 25  1  0  0  0  0
  3 26  1  0  0  0  0
  5 27  1  0  0  0  0
  6 28  1  0  0  0  0
  8 29  1  0  0  0  0
  9 30  1  0  0  0  0
 11 31  1  0  0  0  0
 14 32  1  0  0  0  0
 15 33  1  0  0  0  0
 16 34  1  0  0  0  0
 17 35  1  0  0  0  0
 18 36  1  0  0  0  0
M  END
