 xtb: 6.5.1 (fef0646)
          02032320433D

 21 19  0     0  0            999 V2000
   -0.6233   -1.2305   -1.0565 N   0  0  0  0  0  0  0  0  0  0  0  0
   -0.0767   -1.9137    0.1533 C   0  0  0  0  0  0  0  0  0  0  0  0
    0.5964   -0.9518    1.1398 C   0  0  0  0  0  0  0  0  0  0  0  0
    2.0977   -0.7469    0.9066 C   0  0  0  0  0  0  0  0  0  0  0  0
    2.4677   -0.0819   -0.4218 C   0  0  0  0  0  0  0  0  0  0  0  0
    1.8985    1.3213   -0.5755 C   0  0  0  0  0  0  0  0  0  0  0  0
   -2.5185    1.4931    0.0438 Cl  0  0  0  0  0  0  0  0  0  0  0  0
   -1.2603   -0.4629   -0.7813 H   0  0  0  0  0  0  0  0  0  0  0  0
   -1.1506   -1.8761   -1.6619 H   0  0  0  0  0  0  0  0  0  0  0  0
    0.1221   -0.8111   -1.6276 H   0  0  0  0  0  0  0  0  0  0  0  0
    0.6275   -2.7004   -0.1421 H   0  0  0  0  0  0  0  0  0  0  0  0
   -0.9015   -2.4412    0.6506 H   0  0  0  0  0  0  0  0  0  0  0  0
    0.4444   -1.3168    2.1651 H   0  0  0  0  0  0  0  0  0  0  0  0
    0.0788    0.0133    1.1113 H   0  0  0  0  0  0  0  0  0  0  0  0
    2.6027   -1.7183    0.9853 H   0  0  0  0  0  0  0  0  0  0  0  0
    2.5133   -0.1443    1.7248 H   0  0  0  0  0  0  0  0  0  0  0  0
    2.1454   -0.7183   -1.2546 H   0  0  0  0  0  0  0  0  0  0  0  0
    3.5619   -0.0421   -0.5175 H   0  0  0  0  0  0  0  0  0  0  0  0
    2.2098    1.7895   -1.5121 H   0  0  0  0  0  0  0  0  0  0  0  0
    2.2252    1.9704    0.2390 H   0  0  0  0  0  0  0  0  0  0  0  0
    0.8076    1.3182   -0.5643 H   0  0  0  0  0  0  0  0  0  0  0  0
  1  2  1  0  0  0  0
  2  3  1  0  0  0  0
  3  4  1  0  0  0  0
  4  5  1  0  0  0  0
  5  6  1  0  0  0  0
  1  8  1  0  0  0  0
  1  9  1  0  0  0  0
  1 10  1  0  0  0  0
  2 11  1  0  0  0  0
  2 12  1  0  0  0  0
  3 13  1  0  0  0  0
  3 14  1  0  0  0  0
  4 15  1  0  0  0  0
  4 16  1  0  0  0  0
  5 17  1  0  0  0  0
  5 18  1  0  0  0  0
  6 19  1  0  0  0  0
  6 20  1  0  0  0  0
  6 21  1  0  0  0  0
M  END
