 xtb: 6.5.1 (fef0646)
          01242317103D

 21 19  0     0  0            999 V2000
   -1.1248   -1.7504    0.1771 N   0  0  0  0  0  0  0  0  0  0  0  0
    0.1736   -1.1757   -0.2831 C   0  0  0  0  0  0  0  0  0  0  0  0
    0.5572    0.0769    0.4966 C   0  0  0  0  0  0  0  0  0  0  0  0
    1.8415    0.7441   -0.0044 C   0  0  0  0  0  0  0  0  0  0  0  0
    3.0979   -0.1025    0.2091 C   0  0  0  0  0  0  0  0  0  0  0  0
    4.3666    0.6050   -0.2446 C   0  0  0  0  0  0  0  0  0  0  0  0
   -3.5555    0.7627   -0.1466 Cl  0  0  0  0  0  0  0  0  0  0  0  0
   -1.3949   -2.5869   -0.3641 H   0  0  0  0  0  0  0  0  0  0  0  0
   -1.8805   -1.0546    0.0823 H   0  0  0  0  0  0  0  0  0  0  0  0
   -1.0772   -2.0164    1.1697 H   0  0  0  0  0  0  0  0  0  0  0  0
    0.1148   -0.9397   -1.3524 H   0  0  0  0  0  0  0  0  0  0  0  0
    0.9616   -1.9322   -0.1952 H   0  0  0  0  0  0  0  0  0  0  0  0
    0.6625   -0.1736    1.5585 H   0  0  0  0  0  0  0  0  0  0  0  0
   -0.2768    0.7886    0.4537 H   0  0  0  0  0  0  0  0  0  0  0  0
    1.9777    1.7133    0.4925 H   0  0  0  0  0  0  0  0  0  0  0  0
    1.7392    0.9826   -1.0698 H   0  0  0  0  0  0  0  0  0  0  0  0
    2.9941   -1.0575   -0.3209 H   0  0  0  0  0  0  0  0  0  0  0  0
    3.1756   -0.3739    1.2700 H   0  0  0  0  0  0  0  0  0  0  0  0
    4.5135    1.5406    0.2983 H   0  0  0  0  0  0  0  0  0  0  0  0
    4.3217    0.8539   -1.3065 H   0  0  0  0  0  0  0  0  0  0  0  0
    5.2574   -0.0077   -0.0886 H   0  0  0  0  0  0  0  0  0  0  0  0
  1  2  1  0  0  0  0
  2  3  1  0  0  0  0
  3  4  1  0  0  0  0
  4  5  1  0  0  0  0
  5  6  1  0  0  0  0
  1  8  1  0  0  0  0
  1  9  1  0  0  0  0
  1 10  1  0  0  0  0
  2 11  1  0  0  0  0
  2 12  1  0  0  0  0
  3 13  1  0  0  0  0
  3 14  1  0  0  0  0
  4 15  1  0  0  0  0
  4 16  1  0  0  0  0
  5 17  1  0  0  0  0
  5 18  1  0  0  0  0
  6 19  1  0  0  0  0
  6 20  1  0  0  0  0
  6 21  1  0  0  0  0
M  END
