29
 xtb: 6.5.1 (fef0646)
N           -1.19829504398345        1.93116860166982        0.04161345505034
C           -2.10035578726938        1.31755538120512        1.04849100451213
C           -2.43541438470705       -0.10910726546680        0.63172115618844
O           -1.30332972995401       -0.76621462145619        0.07232610856728
C           -0.18299144890793       -0.84311912556990        0.90280102888699
C           -0.24068347331186       -0.92713176370115        2.28496001296544
C            0.91760705208132       -0.95984746525571        3.05566551675800
C            2.15209767581737       -0.91321519703628        2.46836532689333
C            2.27580415268785       -0.84049270475374        1.06590930702478
C            3.53175939242731       -0.78910910944048        0.42261095479513
C            3.61364568058588       -0.71463789832193       -0.93905007444901
C            2.45356868784095       -0.69013212616390       -1.71783884271941
C            1.22282550550573       -0.73840937576924       -1.12409861494234
C            1.10404249633808       -0.81473710991024        0.27435557397372
Cl          -3.16737188312324        1.88424475964651       -3.19712669245783
H           -0.45005461875448        1.31103087644137       -0.22479040774017
H           -0.92533934176452        2.87721954411500        0.17604038636112
H           -1.78452115827471        1.97684150100555       -0.94465365054544
H           -3.01538141168009        1.91763122323690        1.16901847345690
H           -1.55367389741152        1.35117924130289        1.95113465115390
H           -3.20665895940096       -0.13191037362074       -0.15026528278365
H           -2.82521275693960       -0.69521952481011        1.46888601650880
H           -1.19933466273410       -0.97548181223026        2.76971710050950
H            0.83773776584792       -1.02184619711516        4.12931768238771
H            3.04395331200377       -0.94019245532665        3.07177697033351
H            4.42602863705451       -0.81214066471576        1.02315263529167
H            4.57967918991906       -0.67532814823539       -1.41768267354936
H            2.53238526425631       -0.63010174588845       -2.79128663063291
H            0.32526926653622       -0.72960880903751       -1.71884688398386
