 xtb: 6.5.1 (fef0646)
          01242310123D

 29 29  0     0  0            999 V2000
   -1.2908    1.9287   -0.0953 N   0  0  0  0  0  0  0  0  0  0  0  0
   -2.1086    1.3307    0.9871 C   0  0  0  0  0  0  0  0  0  0  0  0
   -2.4361   -0.1106    0.6272 C   0  0  0  0  0  0  0  0  0  0  0  0
   -1.3040   -0.7735    0.0717 O   0  0  0  0  0  0  0  0  0  0  0  0
   -0.1836   -0.8429    0.9020 C   0  0  0  0  0  0  0  0  0  0  0  0
   -0.2410   -0.9231    2.2843 C   0  0  0  0  0  0  0  0  0  0  0  0
    0.9168   -0.9597    3.0553 C   0  0  0  0  0  0  0  0  0  0  0  0
    2.1515   -0.9174    2.4684 C   0  0  0  0  0  0  0  0  0  0  0  0
    2.2751   -0.8435    1.0661 C   0  0  0  0  0  0  0  0  0  0  0  0
    3.5314   -0.7917    0.4235 C   0  0  0  0  0  0  0  0  0  0  0  0
    3.6143   -0.7135   -0.9378 C   0  0  0  0  0  0  0  0  0  0  0  0
    2.4545   -0.6855   -1.7168 C   0  0  0  0  0  0  0  0  0  0  0  0
    1.2237   -0.7356   -1.1234 C   0  0  0  0  0  0  0  0  0  0  0  0
    1.1035   -0.8158    0.2745 C   0  0  0  0  0  0  0  0  0  0  0  0
   -3.0892    1.8810   -3.0478 Cl  0  0  0  0  0  0  0  0  0  0  0  0
   -0.4757    1.3130   -0.2710 H   0  0  0  0  0  0  0  0  0  0  0  0
   -0.9501    2.8790    0.1276 H   0  0  0  0  0  0  0  0  0  0  0  0
   -1.8261    1.9681   -0.9788 H   0  0  0  0  0  0  0  0  0  0  0  0
   -3.0184    1.9174    1.1619 H   0  0  0  0  0  0  0  0  0  0  0  0
   -1.5412    1.3645    1.9240 H   0  0  0  0  0  0  0  0  0  0  0  0
   -3.2101   -0.1415   -0.1479 H   0  0  0  0  0  0  0  0  0  0  0  0
   -2.8201   -0.6889    1.4744 H   0  0  0  0  0  0  0  0  0  0  0  0
   -1.1993   -0.9724    2.7699 H   0  0  0  0  0  0  0  0  0  0  0  0
    0.8373   -1.0214    4.1292 H   0  0  0  0  0  0  0  0  0  0  0  0
    3.0438   -0.9424    3.0718 H   0  0  0  0  0  0  0  0  0  0  0  0
    4.4258   -0.8135    1.0236 H   0  0  0  0  0  0  0  0  0  0  0  0
    4.5800   -0.6745   -1.4171 H   0  0  0  0  0  0  0  0  0  0  0  0
    2.5329   -0.6274   -2.7909 H   0  0  0  0  0  0  0  0  0  0  0  0
    0.3256   -0.7281   -1.7189 H   0  0  0  0  0  0  0  0  0  0  0  0
  1  2  1  0  0  0  0
  2  3  1  0  0  0  0
  3  4  1  0  0  0  0
  4  5  1  0  0  0  0
  5  6  4  0  0  0  0
  6  7  4  0  0  0  0
  7  8  2  0  0  0  0
  8  9  4  0  0  0  0
  9 10  4  0  0  0  0
 10 11  2  0  0  0  0
 11 12  4  0  0  0  0
 12 13  2  0  0  0  0
  5 14  4  0  0  0  0
  9 14  4  0  0  0  0
 13 14  4  0  0  0  0
  1 16  1  0  0  0  0
  1 17  1  0  0  0  0
  1 18  1  0  0  0  0
  2 19  1  0  0  0  0
  2 20  1  0  0  0  0
  3 21  1  0  0  0  0
  3 22  1  0  0  0  0
  6 23  1  0  0  0  0
  7 24  1  0  0  0  0
  8 25  1  0  0  0  0
 10 26  1  0  0  0  0
 11 27  1  0  0  0  0
 12 28  1  0  0  0  0
 13 29  1  0  0  0  0
M  END
