 xtb: 6.5.1 (fef0646)
          01242317033D

 50 53  0     0  0            999 V2000
   -8.6580   -1.7462    0.2026 N   0  0  0  0  0  0  0  0  0  0  0  0
   -8.8784   -0.3253    0.5966 C   0  0  0  0  0  0  0  0  0  0  0  0
   -8.2384    0.6669   -0.3783 C   0  0  0  0  0  0  0  0  0  0  0  0
   -6.7475    0.6817   -0.3418 C   0  0  0  0  0  0  0  0  0  0  0  0
   -5.9648    1.7692   -0.5710 C   0  0  0  0  0  0  0  0  0  0  0  0
   -4.5700    1.5080   -0.4971 C   0  0  0  0  0  0  0  0  0  0  0  0
   -4.2616    0.2078   -0.2094 C   0  0  0  0  0  0  0  0  0  0  0  0
   -2.9360   -0.3353   -0.0833 C   0  0  0  0  0  0  0  0  0  0  0  0
   -2.6337   -1.6291    0.2424 C   0  0  0  0  0  0  0  0  0  0  0  0
   -1.2488   -1.9120    0.3107 C   0  0  0  0  0  0  0  0  0  0  0  0
   -0.7247   -3.2577    0.6745 C   0  0  0  0  0  0  0  0  0  0  0  0
   -0.4591   -0.8150    0.0248 C   0  0  0  0  0  0  0  0  0  0  0  0
    0.9973   -0.7726    0.0119 C   0  0  0  0  0  0  0  0  0  0  0  0
    1.7498   -1.7308   -0.6441 C   0  0  0  0  0  0  0  0  0  0  0  0
    3.1438   -1.6755   -0.7061 C   0  0  0  0  0  0  0  0  0  0  0  0
    3.8798   -0.6583   -0.1277 C   0  0  0  0  0  0  0  0  0  0  0  0
    5.3307   -0.6371   -0.2549 C   0  0  0  0  0  0  0  0  0  0  0  0
    6.1468    0.4557   -0.4503 C   0  0  0  0  0  0  0  0  0  0  0  0
    5.6713    1.8568   -0.6195 C   0  0  0  0  0  0  0  0  0  0  0  0
    7.5287    0.1100   -0.5073 C   0  0  0  0  0  0  0  0  0  0  0  0
    7.7713   -1.2143   -0.3854 C   0  0  0  0  0  0  0  0  0  0  0  0
    6.3008   -2.0904   -0.1967 S   0  0  0  0  0  0  0  0  0  0  0  0
    3.1593    0.3412    0.6182 C   0  0  0  0  0  0  0  0  0  0  0  0
    3.6642    1.3219    1.3418 N   0  0  0  0  0  0  0  0  0  0  0  0
    2.4227    2.1483    2.0219 S   0  0  0  0  0  0  0  0  0  0  0  0
    1.1916    1.2332    1.4411 N   0  0  0  0  0  0  0  0  0  0  0  0
    1.7080    0.2852    0.6840 C   0  0  0  0  0  0  0  0  0  0  0  0
   -1.4694    0.5642   -0.3408 S   0  0  0  0  0  0  0  0  0  0  0  0
   -5.7387   -0.6982   -0.0234 S   0  0  0  0  0  0  0  0  0  0  0  0
    1.0721    2.4828   -1.5262 Cl  0  0  0  0  0  0  0  0  0  0  0  0
   -9.0908   -1.9486   -0.7102 H   0  0  0  0  0  0  0  0  0  0  0  0
   -9.0366   -2.4069    0.8935 H   0  0  0  0  0  0  0  0  0  0  0  0
   -7.6509   -1.9187    0.1109 H   0  0  0  0  0  0  0  0  0  0  0  0
   -8.4735   -0.1556    1.6007 H   0  0  0  0  0  0  0  0  0  0  0  0
   -9.9565   -0.1399    0.6765 H   0  0  0  0  0  0  0  0  0  0  0  0
   -8.6031    1.6804   -0.1751 H   0  0  0  0  0  0  0  0  0  0  0  0
   -8.5624    0.4356   -1.3980 H   0  0  0  0  0  0  0  0  0  0  0  0
   -6.3706    2.7431   -0.7965 H   0  0  0  0  0  0  0  0  0  0  0  0
   -3.8151    2.2619   -0.6561 H   0  0  0  0  0  0  0  0  0  0  0  0
   -3.3910   -2.3700    0.4402 H   0  0  0  0  0  0  0  0  0  0  0  0
   -0.6033   -3.8807   -0.2114 H   0  0  0  0  0  0  0  0  0  0  0  0
   -1.4066   -3.7701    1.3534 H   0  0  0  0  0  0  0  0  0  0  0  0
    0.2415   -3.1808    1.1738 H   0  0  0  0  0  0  0  0  0  0  0  0
    1.2339   -2.5241   -1.1557 H   0  0  0  0  0  0  0  0  0  0  0  0
    3.6756   -2.4405   -1.2444 H   0  0  0  0  0  0  0  0  0  0  0  0
    4.6766    1.8797   -1.0645 H   0  0  0  0  0  0  0  0  0  0  0  0
    6.3401    2.4230   -1.2681 H   0  0  0  0  0  0  0  0  0  0  0  0
    5.6206    2.3658    0.3425 H   0  0  0  0  0  0  0  0  0  0  0  0
    8.3043    0.8476   -0.6444 H   0  0  0  0  0  0  0  0  0  0  0  0
    8.7404   -1.6751   -0.4062 H   0  0  0  0  0  0  0  0  0  0  0  0
  1  2  1  0  0  0  0
  2  3  1  0  0  0  0
  3  4  1  0  0  0  0
  4  5  2  0  0  0  0
  5  6  4  0  0  0  0
  6  7  2  0  0  0  0
  7  8  1  0  0  0  0
  8  9  4  0  0  0  0
  9 10  4  0  0  0  0
 10 11  1  0  0  0  0
 10 12  4  0  0  0  0
 12 13  1  0  0  0  0
 13 14  4  0  0  0  0
 14 15  4  0  0  0  0
 15 16  4  0  0  0  0
 16 17  1  0  0  0  0
 17 18  2  0  0  0  0
 18 19  1  0  0  0  0
 18 20  4  0  0  0  0
 20 21  2  0  0  0  0
 17 22  1  0  0  0  0
 21 22  1  0  0  0  0
 16 23  1  0  0  0  0
 23 24  4  0  0  0  0
 24 25  2  0  0  0  0
 25 26  2  0  0  0  0
 13 27  1  0  0  0  0
 23 27  1  0  0  0  0
 26 27  4  0  0  0  0
  8 28  1  0  0  0  0
 12 28  1  0  0  0  0
  4 29  1  0  0  0  0
  7 29  1  0  0  0  0
  1 31  1  0  0  0  0
  1 32  1  0  0  0  0
  1 33  1  0  0  0  0
  2 34  1  0  0  0  0
  2 35  1  0  0  0  0
  3 36  1  0  0  0  0
  3 37  1  0  0  0  0
  5 38  1  0  0  0  0
  6 39  1  0  0  0  0
  9 40  1  0  0  0  0
 11 41  1  0  0  0  0
 11 42  1  0  0  0  0
 11 43  1  0  0  0  0
 14 44  1  0  0  0  0
 15 45  1  0  0  0  0
 19 46  1  0  0  0  0
 19 47  1  0  0  0  0
 19 48  1  0  0  0  0
 20 49  1  0  0  0  0
 21 50  1  0  0  0  0
M  END
