 xtb: 6.5.1 (fef0646)
          01242314583D

 18 17  0     0  0            999 V2000
    0.8948   -0.0368    0.0930 N   0  0  0  0  0  0  0  0  0  0  0  0
    2.3777   -0.0385    0.0915 C   0  0  0  0  0  0  0  0  0  0  0  0
    2.9078   -0.0848   -1.3366 C   0  0  0  0  0  0  0  0  0  0  0  0
    4.4361   -0.0992   -1.3613 C   0  0  0  0  0  0  0  0  0  0  0  0
    4.9555   -0.2717   -2.7914 C   0  0  0  0  0  0  0  0  0  0  0  0
    4.5459   -1.4927   -3.3751 O   0  0  0  0  0  0  0  0  0  0  0  0
    0.5297   -0.0125    1.0517 H   0  0  0  0  0  0  0  0  0  0  0  0
    0.5424   -0.8808   -0.3743 H   0  0  0  0  0  0  0  0  0  0  0  0
    0.5425    0.7824   -0.4162 H   0  0  0  0  0  0  0  0  0  0  0  0
    2.7344   -0.9060    0.6465 H   0  0  0  0  0  0  0  0  0  0  0  0
    2.7388    0.8619    0.5884 H   0  0  0  0  0  0  0  0  0  0  0  0
    2.5643    0.7842   -1.8992 H   0  0  0  0  0  0  0  0  0  0  0  0
    2.5559   -0.9808   -1.8502 H   0  0  0  0  0  0  0  0  0  0  0  0
    4.8127   -0.9192   -0.7464 H   0  0  0  0  0  0  0  0  0  0  0  0
    4.8364    0.8334   -0.9635 H   0  0  0  0  0  0  0  0  0  0  0  0
    6.0493   -0.1869   -2.8087 H   0  0  0  0  0  0  0  0  0  0  0  0
    4.5448    0.5066   -3.4395 H   0  0  0  0  0  0  0  0  0  0  0  0
    4.9850   -2.2238   -2.9212 H   0  0  0  0  0  0  0  0  0  0  0  0
  1  2  1  0  0  0  0
  2  3  1  0  0  0  0
  3  4  1  0  0  0  0
  4  5  1  0  0  0  0
  5  6  1  0  0  0  0
  1  7  1  0  0  0  0
  1  8  1  0  0  0  0
  1  9  1  0  0  0  0
  2 10  1  0  0  0  0
  2 11  1  0  0  0  0
  3 12  1  0  0  0  0
  3 13  1  0  0  0  0
  4 14  1  0  0  0  0
  4 15  1  0  0  0  0
  5 16  1  0  0  0  0
  5 17  1  0  0  0  0
  6 18  1  0  0  0  0
M  CHG  1   1   1
M  END
