 xtb: 6.5.1 (fef0646)
          01242314553D

 15 14  0     0  0            999 V2000
    2.8338   -1.2459   -0.1135 O   0  0  0  0  0  0  0  0  0  0  0  0
    2.3884    0.0900    0.0833 C   0  0  0  0  0  0  0  0  0  0  0  0
    2.9323    0.9686   -1.0440 C   0  0  0  0  0  0  0  0  0  0  0  0
    4.4562    1.0167   -1.0439 C   0  0  0  0  0  0  0  0  0  0  0  0
    4.9936   -0.3115   -1.4242 N   0  0  0  0  0  0  0  0  0  0  0  0
    2.4063   -1.8377    0.5149 H   0  0  0  0  0  0  0  0  0  0  0  0
    2.7415    0.4615    1.0538 H   0  0  0  0  0  0  0  0  0  0  0  0
    1.2942    0.1312    0.0792 H   0  0  0  0  0  0  0  0  0  0  0  0
    2.5349    1.9731   -0.9138 H   0  0  0  0  0  0  0  0  0  0  0  0
    2.5689    0.5831   -1.9967 H   0  0  0  0  0  0  0  0  0  0  0  0
    4.8119    1.2712   -0.0453 H   0  0  0  0  0  0  0  0  0  0  0  0
    4.8088    1.7736   -1.7437 H   0  0  0  0  0  0  0  0  0  0  0  0
    4.4650   -1.0205   -0.8767 H   0  0  0  0  0  0  0  0  0  0  0  0
    5.9967   -0.3869   -1.2356 H   0  0  0  0  0  0  0  0  0  0  0  0
    4.8211   -0.4982   -2.4168 H   0  0  0  0  0  0  0  0  0  0  0  0
  1  2  1  0  0  0  0
  2  3  1  0  0  0  0
  3  4  1  0  0  0  0
  4  5  1  0  0  0  0
  1  6  1  0  0  0  0
  2  7  1  0  0  0  0
  2  8  1  0  0  0  0
  3  9  1  0  0  0  0
  3 10  1  0  0  0  0
  4 11  1  0  0  0  0
  4 12  1  0  0  0  0
  5 13  1  0  0  0  0
  5 14  1  0  0  0  0
  5 15  1  0  0  0  0
M  CHG  1   1   1
M  END
