21

N          2.95764       -2.31330       -0.65843
C          2.49127       -0.98716       -0.17486
C          3.06523       -0.68068        1.20946
C          4.57442       -0.66385        1.26187
C          5.31645        0.24045        0.48694
C          6.71022        0.27081        0.57420
C          7.37532       -0.59261        1.44137
C          6.64934       -1.48942        2.22085
C          5.25666       -1.52558        2.13360
H          2.58616       -2.52766       -1.59151
H          2.67945       -3.07381       -0.02562
H          3.98761       -2.33481       -0.72133
H          1.39862       -1.03187       -0.14232
H          2.79624       -0.25420       -0.92735
H          2.67783       -1.41936        1.92305
H          2.69701        0.29496        1.54944
H          4.82843        0.95889       -0.16887
H          7.28082        0.98872       -0.01133
H          8.45912       -0.54707        1.53053
H          7.17148       -2.14093        2.91922
H          4.71771       -2.21288        2.78378
