24
1.005
N           -1.08882  -0.93981  -1.21777
C           -0.61371  -1.78549  -0.08431
C           -0.11856  -0.95920   1.09967
C            1.06168  -0.04269   0.76896
C            2.31809  -0.79716   0.33184
C            3.53359   0.11087   0.12054
C            3.36319   1.08580  -1.03565
Cl          -3.34877   1.36600   0.13624
H           -1.51224  -1.50039  -1.97123
H           -0.31672  -0.39732  -1.62931
H           -1.79760  -0.26206  -0.88778
H            0.17876  -2.45710  -0.43405
H           -1.42798  -2.44712   0.23786
H            0.16404  -1.62501   1.92510
H           -0.95265  -0.35987   1.48600
H            1.30552   0.57896   1.64021
H            0.76700   0.66931  -0.00975
H            2.11525  -1.34948  -0.59300
H            2.54972  -1.56597   1.08022
H            4.42868  -0.50397  -0.04738
H            3.73800   0.66231   1.04754
H            3.15502   0.55878  -1.96861
H            4.25761   1.69224  -1.19525
H            2.53431   1.77403  -0.86229
