24
 xtb: 6.5.1 (fef0646)
N           -0.97627533744779       -1.03883761791079       -1.27920661008040
C           -0.57431395872174       -1.83325948517591       -0.07917399093289
C           -0.11904988154456       -0.96428084655517        1.09144398332949
C            1.06072119900526       -0.04681936538183        0.76150748199507
C            2.31975758406116       -0.79952647360418        0.32823587187819
C            3.53420550702079        0.11074817984153        0.12041512443240
C            3.36389703382900        1.08690835180768       -1.03480249493266
Cl          -3.46358793758363        1.48189613649151        0.19251620609694
H           -1.46916763743991       -1.53518259426084       -1.98921432024534
H           -0.27964861370598       -0.42690260832998       -1.63767218074944
H           -1.76993978463116       -0.29041700968759       -0.92413574308420
H            0.19231155703295       -2.47767871750858       -0.41479649924158
H           -1.42308632010901       -2.45420970349990        0.23624621855361
H            0.16011001230031       -1.61930032399538        1.92982088596291
H           -0.95667707384088       -0.36025550537978        1.47365213262421
H            1.30405127564661        0.57828798750217        1.63790552037129
H            0.76691417024659        0.66798992826108       -0.01215627249995
H            2.11734161251195       -1.35030517536956       -0.59443552982121
H            2.55004758647851       -1.56655837464674        1.07934213565857
H            4.42926169033532       -0.50343636304060       -0.04710426781890
H            3.73730194805794        0.66209229192169        1.04776213965947
H            3.15598858853473        0.55944303450565       -1.96881660652437
H            4.25767063106488        1.69285058190528       -1.19442409159996
H            2.53427881950744        1.77403151415506       -0.86217195311387
