  21

 N          2.8236853947        0.1204380330        1.1458636039
 C          2.4811844642       -0.2848907854       -0.2388997707
 C          2.9966506782        0.7536204236       -1.2343961362
 C          4.5016799826        0.7917956698       -1.2740766946
 C          5.2109866249       -0.2513061277       -1.8611049447
 C          6.5933453619       -0.2384067777       -1.8989803024
 C          7.2712275677        0.8329372568       -1.3420663148
 Br         9.2185631641        0.8651968078       -1.3987141692
 C          6.5915575940        1.8834639513       -0.7527284896
 C          5.2072370176        1.8530700487       -0.7189917270
 H          2.5407185117       -0.6009251487        1.8185328639
 H          2.3519580085        1.0001972055        1.3869974563
 H          3.8372320798        0.2671588230        1.2243441970
 H          1.3993343676       -0.3737889928       -0.3279645773
 H          2.9336568903       -1.2533568579       -0.4490083367
 H          2.6093605862        1.7403200487       -0.9834963963
 H          2.6246686026        0.4934898652       -2.2248021431
 H          4.6855465150       -1.0797391570       -2.3099055594
 H          7.1411156076       -1.0446608157       -2.3597326153
 H          7.1367166130        2.7124612952       -0.3311843339
 H          4.6842543678        2.6843552343       -0.2722256101
