  21

 N          3.0067700000        0.3129200000       -0.9489000000
 C          2.4970700000        0.5200800000        0.4339900000
 C          3.0545700000       -0.5468700000        1.3804600000
 C          4.5646700000       -0.5572300000        1.4228700000
 C          5.2745200000        0.5631000000        1.8797500000
 C          6.6712200000        0.5639800000        1.8834400000
 C          7.3653200000       -0.5606900000        1.4460800000
 Br         9.2541500000       -0.5584300000        1.4527600000
 C          6.6749200000       -1.6887000000        1.0097800000
 C          5.2777400000       -1.6894200000        1.0002000000
 H          2.6661600000        1.0414000000       -1.5894800000
 H          2.7236900000       -0.5983100000       -1.3310900000
 H          4.0373000000        0.3460800000       -0.9697300000
 H          1.4058200000        0.4692700000        0.3804700000
 H          2.7938100000        1.5321300000        0.7260300000
 H          2.6801800000       -1.5314300000        1.0736300000
 H          2.6746000000       -0.3754600000        2.3949200000
 H          4.7578000000        1.4443000000        2.2574900000
 H          7.2096800000        1.4385000000        2.2432500000
 H          7.2176100000       -2.5764300000        0.6902000000
 H          4.7626600000       -2.5931700000        0.6774100000
