  24

 N          2.6306384667        0.0063963898        0.7676262674
 C          2.0436818760       -0.0091987300       -0.6050335175
 C          0.5056453294       -0.0051385429       -0.6344793036
 C         -0.1042785896        1.2629002898        0.0066644688
 C         -1.6388282181        1.2737912426       -0.1245699756
 C         -2.2610044659        0.0050665769        0.4868121289
 C         -1.6453893118       -1.2700908105       -0.1177465428
 C         -0.1108553500       -1.2664529130        0.0137313967
 H          3.6608865646       -0.0066311580        0.7347867104
 H          2.3371757774       -0.8127725289        1.3190609421
 H          2.3573063517        0.8504308420        1.2910430573
 H          2.4176235898       -0.8902351850       -1.1388272091
 H          2.4230361239        0.8561913309       -1.1601610903
 H          0.1904863478       -0.0074636589       -1.6905485240
 H          0.3359882900        2.1638579488       -0.4369078309
 H          0.1671269955        1.2941174937        1.0665041689
 H         -1.9142311141        1.3408905128       -1.1830804220
 H         -2.0597973891        2.1739796676        0.3415785492
 H         -3.3506178905        0.0075467898        0.3543199625
 H         -2.1018855959        0.0075565111        1.5712518351
 H         -1.9209633280       -1.3411528461       -1.1759636633
 H         -2.0712140565       -2.1656508840        0.3528687875
 H          0.3247031936       -2.1721901525       -0.4247436682
 H          0.1602705610       -1.2934044511        1.0737815626
          24
        -25.65609753
 N          2.6455352144        0.0021021931        0.7437803451
 C          2.0453244532       -0.0027150125       -0.6232351533
 C          0.5069469905       -0.0013241487       -0.6378103973
 C         -0.0998789863        1.2641611900        0.0118867850
 C         -1.6358092630        1.2733466458       -0.1069059538
 C         -2.2522364808        0.0014431675        0.5048005396
 C         -1.6374769874       -1.2723849678       -0.1046557069
 C         -0.1015607526       -1.2650479432        0.0137565344
 H          3.6756999585       -0.0098904277        0.7008521817
 H          2.3580573201       -0.8226808207        1.2904017656
 H          2.3760221186        0.8420842169        1.2761112652
 H          2.4152590941       -0.8785426606       -1.1680535571
 H          2.4172601805        0.8682796047       -1.1744418794
 H          0.1809820736       -0.0019734493       -1.6907268755
 H          0.3359377563        2.1668660284       -0.4324473136
 H          0.1796633871        1.2918037012        1.0696560846
 H         -1.9196342833        1.3441103910       -1.1629367584
 H         -2.0536983914        2.1712171674        0.3667190252
 H         -3.3423821093        0.0020866417        0.3759828473
 H         -2.0886470228        0.0022978696        1.5884675818
 H         -1.9217295923       -1.3450913789       -1.1605135069
 H         -2.0563246112       -2.1688595003        0.3708368216
 H          0.3329192867       -2.1687840275       -0.4300536066
 H          0.1781769240       -1.2920941366        1.0715199338
