22
0.0
N           -4.08763  -0.17499   0.70260
C           -3.27231   0.13864  -0.50446
C           -1.85420  -0.28165  -0.36505
C           -0.82946   0.59464  -0.22624
C            0.55452   0.25652  -0.09143
C            1.51470   1.28527   0.05006
C            2.85498   0.99380   0.17343
C            3.28804  -0.32505   0.16039
C            2.36750  -1.35520   0.02216
C            1.02383  -1.07742  -0.10206
H           -4.09918  -1.18880   0.88700
H           -5.06599   0.13451   0.59791
H           -3.70031   0.28653   1.53857
H           -3.32200   1.21571  -0.70662
H           -3.71868  -0.34452  -1.38343
H           -1.65506  -1.33829  -0.34046
H           -1.07029   1.64476  -0.22327
H            1.18673   2.31158   0.05876
H            3.57297   1.79273   0.27940
H            4.33965  -0.54923   0.25605
H            2.70925  -2.37901   0.01003
H            0.32668  -1.88971  -0.21308
