50

N          1.28796        0.34876       -2.30272
C          2.47638       -0.00405       -1.52034
C          3.59002       -0.56108       -2.39990
C          4.81445       -0.91052       -1.59816
C          5.04872       -0.77188       -0.24498
C          6.33740       -1.23379        0.13234
C          7.06868       -1.71953       -0.93384
C          8.41455       -2.23641       -0.86526
C          9.35117       -1.92590        0.09742
C         10.61712       -2.56847       -0.09854
C         11.76527       -2.34219        0.83481
C         10.61017       -3.35796       -1.24689
C         11.69813       -4.15611       -1.83336
C         12.66390       -4.79231       -1.02652
C         13.78019       -5.49202       -1.52545
C         14.01078       -5.73715       -2.89001
C         15.14241       -6.56834       -3.33482
C         15.69692       -7.70620       -2.74244
C         15.25386       -8.39419       -1.48650
C         16.81035       -8.20229       -3.50118
C         17.07499       -7.45198       -4.61936
S         16.03777       -6.11157       -4.73598
C         13.05678       -5.15162       -3.78284
N         13.02623       -5.25007       -5.12304
S         11.76754       -4.32890       -5.66386
N         11.15380       -3.78145       -4.23361
C         11.89316       -4.31211       -3.24287
S          9.04200       -3.38352       -1.95632
S          6.17500       -1.58559       -2.39200
Cl        -0.33283        1.85698       -0.43763
H          0.62041        0.81929       -1.62059
H          0.73861       -0.43259       -2.67654
H          1.41792        1.08590       -2.99901
H          2.15536       -0.73384       -0.76889
H          2.80121        0.91182       -1.01438
H          3.85681        0.17851       -3.16617
H          3.23113       -1.45660       -2.92320
H          4.34168       -0.36241        0.46845
H          6.70417       -1.21571        1.15184
H          9.15622       -1.23881        0.91239
H         11.53824       -1.55071        1.55635
H         12.66502       -2.04929        0.28703
H         11.97087       -3.24548        1.41738
H         12.56287       -4.76213        0.05530
H         14.49108       -5.86500       -0.78811
H         14.29279       -8.03982       -1.11104
H         16.00356       -8.24811       -0.70021
H         15.14446       -9.46898       -1.66143
H         17.38610       -9.08122       -3.23403
H         17.84298       -7.61814       -5.36170
