  20

 N         -3.0704087028        0.8878367616        0.3347499941
 C         -1.7808775947        0.4351852760       -0.2691878138
 C         -1.4155840552       -1.0098473616        0.0710701260
 C         -0.0778160380       -1.5101362395       -0.5207070646
 C          1.1853364226       -1.1554923149        0.2845646601
 C          1.5849148645        0.2952539477        0.1816494045
 O          2.8259856703        0.6535732705        0.5749268763
 O          0.7657174941        1.0775166101       -0.2347794939
 H         -3.2792706677        1.8676412551        0.0907265599
 H         -3.0451213879        0.8248162956        1.3626632817
 H         -3.8589929526        0.3125123361        0.0054257520
 H         -0.9882794406        1.1102705133        0.0724040623
 H         -1.8229708672        0.5645534070       -1.3581524021
 H         -2.2344719994       -1.6529033489       -0.2756266651
 H         -1.4001577721       -1.1347774508        1.1591167136
 H          0.0335094505       -1.1222892588       -1.5398430105
 H         -0.1248615830       -2.6018085800       -0.6295635060
 H          2.0268230637       -1.7661832492       -0.0608669625
 H          1.0378201686       -1.4109304286        1.3383679515
 H          3.3821703863       -0.0842814362        0.8937031630
          20
        -27.47361397
 N         -2.1026265587        1.3530107573        0.0922806735
 C         -2.5098937629       -0.0846892435       -0.0790251730
 C         -1.3483939842       -0.9392238794       -0.6017170576
 C         -0.3525003790       -1.3607540191        0.5076017676
 C          1.1238296960       -1.2242078560        0.1145784439
 C          1.5545081275        0.2164751204        0.0264982462
 O          2.8418032179        0.4404212657       -0.2784454671
 O          0.7608117623        1.1026080143        0.2257842417
 H         -2.2906812257        1.9058944150       -0.7563674162
 H         -1.0747249260        1.3856947395        0.2426596930
 H         -2.5750167182        1.8183947508        0.8814193561
 H         -3.3748001880       -0.1325595339       -0.7539750598
 H         -2.8631232278       -0.4921575776        0.8763693911
 H         -0.8163162008       -0.3611005767       -1.3666375265
 H         -1.7237738122       -1.8271816498       -1.1264517772
 H         -0.5685147080       -2.3858564488        0.8350368145
 H         -0.5162482188       -0.7377833548        1.3951420591
 H          1.3159629870       -1.7163267955       -0.8439867491
 H          1.7709125042       -1.7240847080        0.8448667966
 H          3.0104420884        1.3970959998       -0.2924487567
          20
        -27.47376901
 N          1.8189531311        1.4365510916       -0.1446961192
 C          2.1368563409        0.2287931349        0.6725236162
 C          1.8584236350       -1.0949785492       -0.0462567170
 C          0.4618892756       -1.2386447913       -0.6754978377
 C         -0.7333719386       -1.1036467522        0.2995598520
 C         -1.5483040675        0.1335735030        0.0293411589
 O         -2.8665188505        0.0622081149        0.2706241700
 O         -1.0026857830        1.1297924176       -0.3751805610
 H          2.3017837155        1.4267429564       -1.0539133378
 H          2.0700575575        2.3106097449        0.3397318333
 H          0.7939041554        1.4530741216       -0.3101548561
 H          1.5597757674        0.2787299687        1.6038770731
 H          3.1897909615        0.2762688843        0.9809897616
 H          2.0225291433       -1.9275350411        0.6492145755
 H          2.6144200130       -1.2290929983       -0.8301313398
 H          0.4013242486       -2.2023350735       -1.1994970646
 H          0.3420956775       -0.4909008651       -1.4692553726
 H         -0.3907663974       -1.0870458271        1.3382279081
 H         -1.4072042823       -1.9662648652        0.2273275333
 H         -3.2808513276        0.9154947039        0.0613523278
          20
        -27.47410678
 N          1.7821993893        1.4593308450       -0.1437739437
 C          2.0129910625        0.2881951214        0.7520144016
 C          1.8393646616       -1.0636712123        0.0546482584
 C          0.5081696632       -1.2824007740       -0.6862331831
 C         -0.7707931731       -1.1836917478        0.1780554067
 C         -1.5120738252        0.1133004080       -0.0202944684
 O         -2.7656979133        0.1681310011        0.4556215733
 O         -0.9781978277        1.0414061578       -0.5752390706
 H          0.7814278804        1.4528028185       -0.4152571737
 H          2.3594347688        1.4167222127       -0.9953107877
 H          1.9729494983        2.3552707292        0.3283478189
 H          1.3266567573        0.3602194313        1.6045447679
 H          3.0207769995        0.3645011996        1.1816715577
 H          1.9722146833       -1.8688513068        0.7881837846
 H          2.6647245497       -1.1927384352       -0.6566831536
 H          0.5379430672       -2.2628722602       -1.1810502121
 H          0.4210297850       -0.5629179467       -1.5097158082
 H         -0.5347952527       -1.3074236859        1.2391991836
 H         -1.4697219716       -1.9950269267       -0.0607807986
 H         -3.1482867395        1.0390553542        0.2585172650
