  20

 N          1.3645482630        0.4704018909        0.3255135498
 C          2.7925120530        0.0927790850        0.0659941263
 C          2.9599101006       -0.4380063194       -1.3521843801
 C          4.4242016108       -0.4802172862       -1.8089021243
 C          5.2890783361       -1.5664530299       -1.1645198386
 C          5.7825095481       -1.2062256470        0.2285395038
 O          6.6864762243       -2.0296191628        0.7504059136
 O          5.3810385375       -0.2571198386        0.8455706397
 H          1.2625666678        0.8396729998        1.2785926247
 H          0.7529533474       -0.3483849395        0.2188196018
 H          1.0631285233        1.1906177864       -0.3436416332
 H          3.0898777457       -0.6477426603        0.8057653209
 H          3.4184479729        0.9726192036        0.2129865067
 H          2.4307475722        0.2261389702       -2.0410288676
 H          2.5225000553       -1.4347532447       -1.4414638732
 H          4.8860687827        0.4897277780       -1.6210909083
 H          4.4234328369       -0.6477141942       -2.8861541454
 H          6.1646913368       -1.7329804422       -1.7963255731
 H          4.7427320795       -2.5118035956       -1.1060839708
 H          6.9717084060       -2.7425073536        0.1627575273
