25
0.0
N            4.01851  -1.47494   0.83510
C            4.32662  -0.04324   0.56046
C            3.55795   0.49711  -0.64489
C            2.09487   0.62256  -0.39885
C            1.43339   1.78393  -0.05878
C            0.05386   1.63138   0.09965
C           -0.39612   0.33152  -0.11273
C           -1.73308  -0.10788  -0.03882
C           -2.19106  -1.40450  -0.25940
C           -3.57443  -1.54430  -0.11996
C           -4.21604  -0.37674   0.20863
S           -3.09705   0.90674   0.34660
S            0.97267  -0.67746  -0.49077
H            4.47069  -1.81160   1.69915
H            4.33517  -2.07760   0.06085
H            3.00178  -1.60961   0.93218
H            5.40830   0.06519   0.40822
H            4.08692   0.55816   1.44571
H            3.71670  -0.16230  -1.50507
H            3.95332   1.47508  -0.94449
H            1.93964   2.73073   0.06079
H           -0.61051   2.44403   0.35301
H           -1.53214  -2.21975  -0.51865
H           -4.09127  -2.48427  -0.25947
H           -5.27471  -0.26667   0.36102
