25
 xtb: 6.5.1 (fef0646)
N            3.66028864173605       -1.88346139763706        0.21155541413174
C            3.99004736388143       -0.65506743275839       -0.57715630807374
C            3.57706952578166        0.63750535737153        0.13570646279231
C            2.10573639284028        0.86951511695444        0.09832900181731
C            1.47110294301463        2.09186875313284        0.05546774213675
C            0.07567937578186        2.01660803873386        0.01340748580171
C           -0.42358513830842        0.71679378169188        0.02743362376184
C           -1.77243858357271        0.31792468313303       -0.01029994239304
C           -2.89191570833681        1.14402540204268       -0.06923685773777
C           -4.10194701218287        0.44866432065721       -0.09081194114225
C           -3.95758740938725       -0.91404937547020       -0.04897538312210
S           -2.30408428138755       -1.34589026665955        0.01917236334384
S            0.92614656783377       -0.38209021583665        0.07965899138925
H            2.63709094601867       -1.85963555956788        0.43592764285993
H            4.18359558554821       -1.95740592806582        1.07137702301010
H            3.81857134830637       -2.73665300571820       -0.37188123015936
H            3.57644925415630       -0.68318522734947       -1.56184073456652
H            5.10621252346647       -0.64788748162849       -0.71249527909972
H            4.07763013209351        1.50401307165110       -0.31048658967280
H            3.89477888110461        0.61991908611533        1.18576339181963
H            2.01039668029207        3.02333710780528        0.04439747354703
H           -0.55769246988826        2.88653835969561       -0.02994677517845
H           -2.82858241668334        2.22153066741686       -0.08657833322098
H           -5.06371893460900        0.94337985884266       -0.12129092736115
H           -4.76318534702292       -1.62358979384873       -0.04972221945868
