 xtb: 6.5.1 (fef0646)
          01242317123D

 18 16  0     0  0            999 V2000
   -2.8176   -1.9598   -0.7506 N   0  0  0  0  0  0  0  0  0  0  0  0
   -2.0968   -2.5915    0.3923 C   0  0  0  0  0  0  0  0  0  0  0  0
   -0.7405   -1.9473    0.6657 C   0  0  0  0  0  0  0  0  0  0  0  0
   -0.8435   -0.5045    1.1608 C   0  0  0  0  0  0  0  0  0  0  0  0
    0.5127    0.1271    1.4324 C   0  0  0  0  0  0  0  0  0  0  0  0
    1.7356    0.4090   -0.2959 I   0  0  0  0  0  0  0  0  0  0  0  0
   -3.5905    1.4262   -0.0522 Cl  0  0  0  0  0  0  0  0  0  0  0  0
   -3.0335   -0.9712   -0.5538 H   0  0  0  0  0  0  0  0  0  0  0  0
   -3.7075   -2.4352   -0.9535 H   0  0  0  0  0  0  0  0  0  0  0  0
   -2.2428   -1.9849   -1.6064 H   0  0  0  0  0  0  0  0  0  0  0  0
   -1.9699   -3.6621    0.1879 H   0  0  0  0  0  0  0  0  0  0  0  0
   -2.7188   -2.5375    1.2934 H   0  0  0  0  0  0  0  0  0  0  0  0
   -0.1341   -1.9753   -0.2464 H   0  0  0  0  0  0  0  0  0  0  0  0
   -0.1812   -2.5395    1.4003 H   0  0  0  0  0  0  0  0  0  0  0  0
   -1.4672   -0.4730    2.0645 H   0  0  0  0  0  0  0  0  0  0  0  0
   -1.3749    0.1019    0.4178 H   0  0  0  0  0  0  0  0  0  0  0  0
    1.0934   -0.4824    2.1272 H   0  0  0  0  0  0  0  0  0  0  0  0
    0.4102    1.1174    1.8826 H   0  0  0  0  0  0  0  0  0  0  0  0
  1  2  1  0  0  0  0
  2  3  1  0  0  0  0
  3  4  1  0  0  0  0
  4  5  1  0  0  0  0
  5  6  1  0  0  0  0
  1  8  1  0  0  0  0
  1  9  1  0  0  0  0
  1 10  1  0  0  0  0
  2 11  1  0  0  0  0
  2 12  1  0  0  0  0
  3 13  1  0  0  0  0
  3 14  1  0  0  0  0
  4 15  1  0  0  0  0
  4 16  1  0  0  0  0
  5 17  1  0  0  0  0
  5 18  1  0  0  0  0
M  END
