 xtb: 6.5.1 (fef0646)
          02032321083D

 18 16  0     0  0            999 V2000
   -2.8701   -1.1355   -1.0092 N   0  0  0  0  0  0  0  0  0  0  0  0
   -1.6654   -0.3609   -1.4264 C   0  0  0  0  0  0  0  0  0  0  0  0
   -1.1829    0.5840   -0.3331 C   0  0  0  0  0  0  0  0  0  0  0  0
   -0.0010    1.4617   -0.7564 C   0  0  0  0  0  0  0  0  0  0  0  0
    1.2643    0.6739   -1.0584 C   0  0  0  0  0  0  0  0  0  0  0  0
    2.0456   -0.4587    0.5747 I   0  0  0  0  0  0  0  0  0  0  0  0
   -5.3074    1.2358   -0.1337 Cl  0  0  0  0  0  0  0  0  0  0  0  0
   -2.6667   -1.7124   -0.1830 H   0  0  0  0  0  0  0  0  0  0  0  0
   -3.2096   -1.7567   -1.7557 H   0  0  0  0  0  0  0  0  0  0  0  0
   -3.6397   -0.4933   -0.7553 H   0  0  0  0  0  0  0  0  0  0  0  0
   -1.8910    0.2114   -2.3340 H   0  0  0  0  0  0  0  0  0  0  0  0
   -0.8643   -1.0530   -1.7088 H   0  0  0  0  0  0  0  0  0  0  0  0
   -0.9083    0.0011    0.5530 H   0  0  0  0  0  0  0  0  0  0  0  0
   -2.0220    1.2129   -0.0114 H   0  0  0  0  0  0  0  0  0  0  0  0
    0.2183    2.1909    0.0352 H   0  0  0  0  0  0  0  0  0  0  0  0
   -0.2887    2.0592   -1.6320 H   0  0  0  0  0  0  0  0  0  0  0  0
    2.0772    1.3318   -1.3753 H   0  0  0  0  0  0  0  0  0  0  0  0
    1.1020   -0.0371   -1.8701 H   0  0  0  0  0  0  0  0  0  0  0  0
  1  2  1  0  0  0  0
  2  3  1  0  0  0  0
  3  4  1  0  0  0  0
  4  5  1  0  0  0  0
  5  6  1  0  0  0  0
  1  8  1  0  0  0  0
  1  9  1  0  0  0  0
  1 10  1  0  0  0  0
  2 11  1  0  0  0  0
  2 12  1  0  0  0  0
  3 13  1  0  0  0  0
  3 14  1  0  0  0  0
  4 15  1  0  0  0  0
  4 16  1  0  0  0  0
  5 17  1  0  0  0  0
  5 18  1  0  0  0  0
M  END
