28
0.0
N            4.03324  -1.19804  -0.76816
C            3.94011  -0.30405   0.41617
C            2.72740   0.60483   0.31040
O            1.53529  -0.16486   0.23695
C            0.39476   0.54667   0.10973
C            0.31068   1.95611   0.01418
C           -0.89926   2.59143  -0.13033
C           -2.07975   1.87888  -0.18520
C           -2.07736   0.47479  -0.08767
C           -3.26431  -0.28186  -0.13303
C           -3.22523  -1.64627  -0.02606
C           -2.01164  -2.30469   0.13157
C           -0.83822  -1.59141   0.17769
C           -0.84244  -0.20348   0.06587
H            4.79699  -1.87762  -0.67756
H            4.18324  -0.65254  -1.62361
H            3.15021  -1.70853  -0.87689
H            4.86255   0.27904   0.52042
H            3.85016  -0.91471   1.32184
H            2.78834   1.21350  -0.59836
H            2.64829   1.26930   1.17923
H            1.20734   2.54695   0.05341
H           -0.92817   3.66685  -0.20269
H           -3.01744   2.39481  -0.29979
H           -4.20615   0.22605  -0.25168
H           -4.14077  -2.21451  -0.06208
H           -1.99195  -3.37886   0.21859
H            0.10554  -2.09237   0.30816
