28
0.0
N           -3.52501  -1.17194   1.17365
C           -3.53508   0.07320   0.36333
C           -2.77629  -0.13638  -0.93751
O           -1.46092  -0.62819  -0.70514
C           -0.51920   0.28789  -0.38633
C           -0.72431   1.68433  -0.24987
C            0.30661   2.52752   0.08381
C            1.58523   2.04768   0.29797
C            1.86847   0.67586   0.17339
C            3.16190   0.15633   0.37323
C            3.40535  -1.18594   0.23088
C            2.37791  -2.05317  -0.11392
C            1.10290  -1.57288  -0.31268
C            0.82161  -0.21552  -0.17250
H           -2.55408  -1.48160   1.32651
H           -4.01444  -1.93502   0.68279
H           -3.97505  -1.04555   2.09438
H           -3.06931   0.87752   0.94277
H           -4.56774   0.38932   0.17062
H           -2.72558   0.75981  -1.56672
H           -3.27292  -0.90673  -1.54031
H           -1.70240   2.09892  -0.41423
H            0.11809   3.58617   0.17769
H            2.38084   2.72684   0.55700
H            3.96308   0.82735   0.63677
H            4.40208  -1.57123   0.38416
H            2.58070  -3.10671  -0.22978
H            0.30116  -2.23779  -0.58987
