28
 xtb: 6.5.1 (fef0646)
N            4.01092175665658       -1.15838339296289       -0.85922238466860
C            3.95342288582152       -0.30818922911819        0.36492851901733
C            2.72771496216836        0.59326746236361        0.33976940618164
O            1.53120927902228       -0.17561496324470        0.32060180726467
C            0.39476670328709        0.54026024784474        0.16558018345464
C            0.31461148458192        1.95019390624949        0.07060200328029
C           -0.88705027596596        2.58599142603160       -0.14097607186657
C           -2.06552152568872        1.87428491099849       -0.24751130831921
C           -2.07024985932525        0.47198388884144       -0.12397845100020
C           -3.25682583093549       -0.28263117593983       -0.21239375748296
C           -3.22702403247245       -1.64434867022487       -0.06807587386217
C           -2.02469719485300       -2.30089101902336        0.18420034863748
C           -0.85078073623805       -1.59029072021935        0.26237623106934
C           -0.84402875147120       -0.20646060333396        0.09981930854606
H            4.81395539241832       -1.84520582167867       -0.73075757305728
H            4.13554639227039       -0.62958539265321       -1.64757361998772
H            3.15638188121333       -1.72317405955136       -0.88075985522432
H            4.86504088082290        0.28096168856625        0.50015723382976
H            3.86749677859012       -0.92465720400808        1.30240294122379
H            2.77486550835270        1.21542681753314       -0.58731731135937
H            2.66041584659245        1.26128799535586        1.19234400054547
H            1.20784094752727        2.54537149468586        0.08231955987855
H           -0.92321920158089        3.66519148380383       -0.20746546256494
H           -3.01130772057524        2.39328852398579       -0.33507463190641
H           -4.20169147189935        0.22568084456493       -0.29349515561800
H           -4.14112730746220       -2.21354133035466       -0.08490962027203
H           -1.99820541738697       -3.37684579697372        0.24553269315136
H            0.09946790723161       -2.09144645736522        0.35266029821357
