25
1.045
N           -2.49616   0.88702  -0.59387
C           -1.18778   0.90418   0.12283
C           -0.29866   2.06020  -0.31710
C            1.05273   2.08950   0.40652
C            1.89698   0.87945   0.12670
C            1.95991  -0.16999   1.03296
C            2.71092  -1.29531   0.75701
C            3.40634  -1.38757  -0.43184
C            3.34746  -0.35363  -1.34432
C            2.59558   0.77095  -1.06694
Cl          -4.41971  -1.83149   0.54445
H           -3.01891   1.75756  -0.42691
H           -3.08984   0.09928  -0.28708
H           -2.35775   0.79868  -1.61268
H           -0.66645  -0.04644  -0.04043
H           -1.35780   0.95927   1.20457
H           -0.83294   3.00555  -0.16325
H           -0.13234   1.99607  -1.39834
H            0.89020   2.17450   1.48661
H            1.61710   2.98691   0.12632
H            1.41151  -0.10024   1.95765
H            2.75232  -2.10332   1.46987
H            3.99263  -2.26633  -0.64803
H            3.88718  -0.42465  -2.27509
H            2.54334   1.57643  -1.78037
