25
 xtb: 6.5.1 (fef0646)
N           -2.51047322103226        0.84068388032277       -0.57505880061855
C           -1.19503278605296        0.87760698564152        0.12894824866102
C           -0.31891217112458        2.04849529871451       -0.30205459760547
C            1.03590943997647        2.08131794648701        0.41638153683574
C            1.88488216676487        0.87515935820464        0.13321221346987
C            1.99270795592356       -0.15386942925730        1.05987089440926
C            2.74572825660121       -1.27723723130811        0.78099400568841
C            3.39775352854352       -1.38864762857777       -0.43169842309612
C            3.29511744376255       -0.37465146906039       -1.36400887442545
C            2.54245876390338        0.74844721510998       -1.08295645169436
Cl          -4.34183158218935       -1.75475503962443        0.49517522706470
H           -3.02686771891282        1.74179727390675       -0.41820862196780
H           -3.09121974581968        0.08119083903457       -0.28282596683880
H           -2.36363929276132        0.78996064753551       -1.60812889340910
H           -0.66505896094242       -0.05163220537723       -0.04201722059675
H           -1.35812458265431        0.94792835840773        1.20682124580492
H           -0.84106872218560        3.00017585213112       -0.15489677608847
H           -0.13956889719539        1.99690407601470       -1.39444761753214
H            0.88645964465259        2.17159820119479        1.48967412384240
H            1.61094015398853        2.98536001541495        0.12892968490907
H            1.43037150197867       -0.09157865326119        1.97068188266182
H            2.77236007703402       -2.09354148237939        1.48142232378867
H            3.99011744094929       -2.26645165969665       -0.64891054708960
H            3.86221224126411       -0.43503060823849       -2.28616364285608
H            2.51797728037419        1.56521437869756       -1.78958744965508
