42
 xtb: 6.5.1 (fef0646)
N           -4.75148908069003       -0.70945738626967        1.65525228981831
C           -4.77832202066505        0.75980691054546        1.39621437624404
C           -3.42394507577949        1.31090975120491        0.95590787640188
C           -3.01162413677282        0.87835667907247       -0.45271513357717
C           -1.68746022465519        1.49841504422878       -0.91324079823316
C           -0.47129855077245        0.98293150680300       -0.14174956806515
C            0.84760523942171        1.58236329809064       -0.63076666584364
C            2.06319444219658        1.03657874605455        0.11928801661747
C            3.38302256538183        1.64230374836949       -0.35954740739048
C            4.60803887366551        1.12073095841436        0.39707858051214
C            4.89616163756874       -0.36035199515643        0.14760002222855
C            6.15949088919805       -0.85243330993373        0.85570392909875
C            6.44290529993144       -2.32481792355208        0.59650828884902
Cl          -3.82489889183497       -2.50675108054951       -1.64770259589287
H           -5.63678101399471       -1.13889772092200        1.87482995701270
H           -4.02213197690705       -1.02149584378333        2.26130792057033
H           -4.48303200304415       -1.23985193965193        0.68363646331246
H           -5.11033446605292        1.18915337862468        2.30111740482846
H           -5.53415445843210        0.97085225448410        0.62224222509674
H           -2.65994603881666        0.98520043292454        1.66640828757285
H           -3.44941309554918        2.39118421102717        1.00795693857127
H           -3.80581834468258        1.15603925595698       -1.16698691142650
H           -2.92720068723549       -0.20482676817702       -0.52777685394345
H           -1.73726069449726        2.60222019140638       -0.81382025849338
H           -1.52675540822919        1.33189888839084       -1.98688469866701
H           -0.42787321215856       -0.10504198598500       -0.22529786778434
H           -0.58618932915529        1.19041999120090        0.92538199043656
H            0.81989242238192        2.67788271929155       -0.53444027798111
H            0.96806543902044        1.39930640378693       -1.70570425071244
H            2.09393173717394       -0.05350293572772        0.01173470597671
H            1.94677952451121        1.21498333201078        1.19373747596094
H            3.32825962843712        2.73574318492513       -0.27062858881959
H            3.50962233621647        1.44998121044152       -1.43134111183960
H            4.47705728005443        1.29062739890331        1.47346306507030
H            5.49754760331921        1.70636698405593        0.12464314872758
H            4.98935199196894       -0.53935762285661       -0.93025729715859
H            4.04294241646966       -0.96788627623128        0.46549200258357
H            6.06432102682835       -0.67110475022503        1.93602773840428
H            7.01597893786270       -0.24201541349005        0.54257581046210
H            5.61739819025570       -2.95289537640816        0.93579468947159
H            7.34627305774178       -2.66695903999638        1.10918962373106
H            6.57831877906314       -2.51919236384427       -0.46851298584946
