16
 xtb: 6.5.1 (fef0646)
N            0.69487875444520        0.65323859304066        1.19473344235541
C           -0.54501627009696        0.11259259555697        0.70738961218705
C           -1.07834085208369       -1.04570591984426        1.25092258587586
C           -2.26270042084862       -1.56588401062423        0.76759756191515
C           -2.92298929428710       -0.93442404060910       -0.26775716163401
C           -2.39413224961081        0.21447321770053       -0.82157742881201
C           -1.21009040598326        0.73334959309789       -0.33573919325218
Cl           3.50492070735757        0.59699679575260       -1.04933152701819
H            0.69628778095556        1.64164839724430        1.38229846796543
H            1.49787155580082        0.53001819906233        0.49373158151537
H            1.07220809539035        0.18827872953475        2.03560655841219
H           -0.55778075352730       -1.52488004975439        2.06389854258228
H           -2.68325527125934       -2.43929996068598        1.22329781396809
H           -3.85036137114814       -1.32373146999829       -0.63271468608268
H           -2.88723338686700        0.70104316912357       -1.64510354791020
H           -0.75904901182792        1.60559618346078       -0.79367200039744
