 xtb: 6.5.1 (fef0646)
          01242314573D

 18 16  0     0  0            999 V2000
    1.2297    0.3210   -0.1936 N   0  0  0  0  0  0  0  0  0  0  0  0
    2.6951    0.2701   -0.3601 C   0  0  0  0  0  0  0  0  0  0  0  0
    3.1147   -1.1268   -0.8041 C   0  0  0  0  0  0  0  0  0  0  0  0
    4.6361   -1.2773   -0.7910 C   0  0  0  0  0  0  0  0  0  0  0  0
    5.0239   -2.6832   -1.2056 C   0  0  0  0  0  0  0  0  0  0  0  0
    6.9860   -2.9222   -1.1811 Br  0  0  0  0  0  0  0  0  0  0  0  0
    0.4312   -1.9820    1.6567 Cl  0  0  0  0  0  0  0  0  0  0  0  0
    0.9258    1.2190    0.1888 H   0  0  0  0  0  0  0  0  0  0  0  0
    0.9281   -0.4373    0.4711 H   0  0  0  0  0  0  0  0  0  0  0  0
    0.7533    0.1457   -1.0819 H   0  0  0  0  0  0  0  0  0  0  0  0
    3.1606    0.4931    0.5993 H   0  0  0  0  0  0  0  0  0  0  0  0
    3.0085    1.0151   -1.0921 H   0  0  0  0  0  0  0  0  0  0  0  0
    2.7414   -1.3336   -1.8071 H   0  0  0  0  0  0  0  0  0  0  0  0
    2.6683   -1.8510   -0.1204 H   0  0  0  0  0  0  0  0  0  0  0  0
    5.0169   -1.0803    0.2129 H   0  0  0  0  0  0  0  0  0  0  0  0
    5.0918   -0.5572   -1.4735 H   0  0  0  0  0  0  0  0  0  0  0  0
    4.7172   -2.9113   -2.2248 H   0  0  0  0  0  0  0  0  0  0  0  0
    4.6264   -3.4309   -0.5216 H   0  0  0  0  0  0  0  0  0  0  0  0
  1  2  1  0  0  0  0
  2  3  1  0  0  0  0
  3  4  1  0  0  0  0
  4  5  1  0  0  0  0
  5  6  1  0  0  0  0
  1  8  1  0  0  0  0
  1  9  1  0  0  0  0
  1 10  1  0  0  0  0
  2 11  1  0  0  0  0
  2 12  1  0  0  0  0
  3 13  1  0  0  0  0
  3 14  1  0  0  0  0
  4 15  1  0  0  0  0
  4 16  1  0  0  0  0
  5 17  1  0  0  0  0
  5 18  1  0  0  0  0
M  END
