 xtb: 6.5.1 (fef0646)
          01232319033D

 33 34  0     0  0            999 V2000
    3.0597   -0.8627   -3.4954 N   0  0  0  0  0  0  0  0  0  0  0  0
    2.5096   -0.1586   -2.3002 C   0  0  0  0  0  0  0  0  0  0  0  0
    3.1128   -0.8193   -1.0560 C   0  0  0  0  0  0  0  0  0  0  0  0
    4.6123   -0.8135   -1.1957 C   0  0  0  0  0  0  0  0  0  0  0  0
    5.3663    0.2799   -0.7772 C   0  0  0  0  0  0  0  0  0  0  0  0
    6.7219    0.3328   -1.0048 C   0  0  0  0  0  0  0  0  0  0  0  0
    5.2628   -1.8656   -1.8565 C   0  0  0  0  0  0  0  0  0  0  0  0
    6.6261   -1.8363   -2.0668 C   0  0  0  0  0  0  0  0  0  0  0  0
    7.3810   -0.7247   -1.6617 C   0  0  0  0  0  0  0  0  0  0  0  0
    8.7323   -0.7908   -1.7106 N   0  0  0  0  0  0  0  0  0  0  0  0
    9.4595    0.1458   -2.1218 N   0  0  0  0  0  0  0  0  0  0  0  0
   10.8205    0.0364   -1.9386 C   0  0  0  0  0  0  0  0  0  0  0  0
   11.4447   -1.0128   -1.2468 C   0  0  0  0  0  0  0  0  0  0  0  0
   12.8145   -1.0156   -1.1034 C   0  0  0  0  0  0  0  0  0  0  0  0
   13.5750    0.0171   -1.6393 C   0  0  0  0  0  0  0  0  0  0  0  0
   12.9639    1.0585   -2.3239 C   0  0  0  0  0  0  0  0  0  0  0  0
   11.5929    1.0732   -2.4770 C   0  0  0  0  0  0  0  0  0  0  0  0
    3.0449   -0.2851   -4.3402 H   0  0  0  0  0  0  0  0  0  0  0  0
    2.5503   -1.7339   -3.6764 H   0  0  0  0  0  0  0  0  0  0  0  0
    4.0556   -1.1126   -3.2176 H   0  0  0  0  0  0  0  0  0  0  0  0
    1.4213   -0.2082   -2.3026 H   0  0  0  0  0  0  0  0  0  0  0  0
    2.8198    0.8859   -2.3452 H   0  0  0  0  0  0  0  0  0  0  0  0
    2.7379   -1.8389   -0.9543 H   0  0  0  0  0  0  0  0  0  0  0  0
    2.8055   -0.2591   -0.1748 H   0  0  0  0  0  0  0  0  0  0  0  0
    4.8799    1.0969   -0.2654 H   0  0  0  0  0  0  0  0  0  0  0  0
    7.3079    1.1727   -0.6661 H   0  0  0  0  0  0  0  0  0  0  0  0
    4.7196   -2.7687   -2.1100 H   0  0  0  0  0  0  0  0  0  0  0  0
    7.1257   -2.6594   -2.5524 H   0  0  0  0  0  0  0  0  0  0  0  0
   10.8342   -1.8033   -0.8364 H   0  0  0  0  0  0  0  0  0  0  0  0
   13.2995   -1.8200   -0.5713 H   0  0  0  0  0  0  0  0  0  0  0  0
   14.6478    0.0086   -1.5208 H   0  0  0  0  0  0  0  0  0  0  0  0
   13.5620    1.8565   -2.7363 H   0  0  0  0  0  0  0  0  0  0  0  0
   11.0936    1.8711   -3.0046 H   0  0  0  0  0  0  0  0  0  0  0  0
  1  2  1  0  0  0  0
  2  3  1  0  0  0  0
  3  4  1  0  0  0  0
  4  5  4  0  0  0  0
  5  6  4  0  0  0  0
  4  7  4  0  0  0  0
  7  8  4  0  0  0  0
  6  9  4  0  0  0  0
  8  9  4  0  0  0  0
  9 10  4  0  0  0  0
 10 11  2  0  0  0  0
 11 12  1  0  0  0  0
 12 13  4  0  0  0  0
 13 14  4  0  0  0  0
 14 15  4  0  0  0  0
 15 16  4  0  0  0  0
 12 17  4  0  0  0  0
 16 17  4  0  0  0  0
  1 18  1  0  0  0  0
  1 19  1  0  0  0  0
  1 20  1  0  0  0  0
  2 21  1  0  0  0  0
  2 22  1  0  0  0  0
  3 23  1  0  0  0  0
  3 24  1  0  0  0  0
  5 25  1  0  0  0  0
  6 26  1  0  0  0  0
  7 27  1  0  0  0  0
  8 28  1  0  0  0  0
 13 29  1  0  0  0  0
 14 30  1  0  0  0  0
 15 31  1  0  0  0  0
 16 32  1  0  0  0  0
 17 33  1  0  0  0  0
M  CHG  1   1   1
M  END
