28
 xtb: 6.5.1 (fef0646)
N           -2.65373835918550       -1.36022369836780        1.18397035381770
C           -1.69641596233276       -1.79043142836802        0.12139226174631
C           -2.37589896211805       -1.87613211133477       -1.23996956995423
C           -0.47865825646190       -0.89878982702902        0.08010697414729
C           -0.60209238233259        0.49444326047375       -0.07035662921595
C            0.50258256667871        1.29460104274031       -0.13793653406163
C            0.77418261804219       -1.45268260018593        0.15627548722918
C            1.93755239168688       -0.65578953415970        0.08961733766212
C            1.80028622999304        0.74340705113081       -0.06193990660029
C            2.96690633737294        1.53842468670619       -0.13379512494857
C            4.20401443657967        0.96649394093801       -0.05855118241728
C            4.33851220592251       -0.41913375717592        0.09205146996187
C            3.23243584877292       -1.21560299889949        0.16446439678004
Cl          -3.87061296693684        2.00224433563565       -0.14558095037202
H           -3.49316787900060       -1.90339450185187        1.24291538280403
H           -3.06421023158136       -0.34326110037417        0.85118074609665
H           -2.24703455859252       -1.14275184126837        2.06495406451722
H           -1.39143212130185       -2.75837715203932        0.45456840619970
H           -3.24234895523798       -2.52835975977918       -1.21239190747129
H           -1.66662072753874       -2.28867781268089       -1.97789176088458
H           -2.68805193680152       -0.90427436591525       -1.60557436914337
H           -1.57628838779013        0.95393713781559       -0.13538637353632
H            0.41154019973061        2.37191187735426       -0.25304379897024
H            0.86424734890044       -2.51213307134377        0.25929981596955
H            2.87929062949810        2.60323964279818       -0.24354310708701
H            5.09634646802604        1.57162356016542       -0.11061420522267
H            5.31923220812732       -0.87106015750136        0.14603625244838
H            3.32445309443913       -2.28738813525559        0.27129329472483
