 xtb: 6.5.1 (fef0646)
          01242310123D

 28 28  0     0  0            999 V2000
   -2.7052   -1.2236    1.1229 N   0  0  0  0  0  0  0  0  0  0  0  0
   -1.7217   -1.7407    0.1314 C   0  0  0  0  0  0  0  0  0  0  0  0
   -2.3598   -1.8825   -1.2452 C   0  0  0  0  0  0  0  0  0  0  0  0
   -0.4849   -0.8756    0.0805 C   0  0  0  0  0  0  0  0  0  0  0  0
   -0.5927    0.5180   -0.0708 C   0  0  0  0  0  0  0  0  0  0  0  0
    0.5170    1.3094   -0.1382 C   0  0  0  0  0  0  0  0  0  0  0  0
    0.7625   -1.4422    0.1519 C   0  0  0  0  0  0  0  0  0  0  0  0
    1.9334   -0.6543    0.0850 C   0  0  0  0  0  0  0  0  0  0  0  0
    1.8089    0.7466   -0.0616 C   0  0  0  0  0  0  0  0  0  0  0  0
    2.9799    1.5348   -0.1292 C   0  0  0  0  0  0  0  0  0  0  0  0
    4.2131    0.9550   -0.0555 C   0  0  0  0  0  0  0  0  0  0  0  0
    4.3367   -0.4322    0.0884 C   0  0  0  0  0  0  0  0  0  0  0  0
    3.2251   -1.2218    0.1575 C   0  0  0  0  0  0  0  0  0  0  0  0
   -3.8405    1.8443   -0.0943 Cl  0  0  0  0  0  0  0  0  0  0  0  0
   -3.5091   -1.8629    1.2313 H   0  0  0  0  0  0  0  0  0  0  0  0
   -3.0767   -0.3066    0.8155 H   0  0  0  0  0  0  0  0  0  0  0  0
   -2.2685   -1.0913    2.0497 H   0  0  0  0  0  0  0  0  0  0  0  0
   -1.4076   -2.7409    0.4746 H   0  0  0  0  0  0  0  0  0  0  0  0
   -3.2397   -2.5274   -1.2131 H   0  0  0  0  0  0  0  0  0  0  0  0
   -1.6572   -2.3006   -1.9689 H   0  0  0  0  0  0  0  0  0  0  0  0
   -2.6782   -0.9098   -1.6208 H   0  0  0  0  0  0  0  0  0  0  0  0
   -1.5724    0.9625   -0.1351 H   0  0  0  0  0  0  0  0  0  0  0  0
    0.4187    2.3766   -0.2526 H   0  0  0  0  0  0  0  0  0  0  0  0
    0.8581   -2.5094    0.2574 H   0  0  0  0  0  0  0  0  0  0  0  0
    2.8848    2.6025   -0.2406 H   0  0  0  0  0  0  0  0  0  0  0  0
    5.1002    1.5666   -0.1087 H   0  0  0  0  0  0  0  0  0  0  0  0
    5.3178   -0.8770    0.1443 H   0  0  0  0  0  0  0  0  0  0  0  0
    3.3206   -2.2895    0.2677 H   0  0  0  0  0  0  0  0  0  0  0  0
  1  2  1  0  0  0  0
  2  3  1  0  0  0  0
  2  4  1  0  0  0  0
  4  5  4  0  0  0  0
  5  6  2  0  0  0  0
  4  7  2  0  0  0  0
  7  8  4  0  0  0  0
  6  9  4  0  0  0  0
  8  9  4  0  0  0  0
  9 10  4  0  0  0  0
 10 11  2  0  0  0  0
 11 12  4  0  0  0  0
  8 13  4  0  0  0  0
 12 13  2  0  0  0  0
  1 15  1  0  0  0  0
  1 16  1  0  0  0  0
  1 17  1  0  0  0  0
  2 18  1  0  0  0  0
  3 19  1  0  0  0  0
  3 20  1  0  0  0  0
  3 21  1  0  0  0  0
  5 22  1  0  0  0  0
  6 23  1  0  0  0  0
  7 24  1  0  0  0  0
 10 25  1  0  0  0  0
 11 26  1  0  0  0  0
 12 27  1  0  0  0  0
 13 28  1  0  0  0  0
M  END
