 xtb: 6.5.1 (fef0646)
          01242310103D

 24 22  0     0  0            999 V2000
    0.9162   -0.7761    1.4356 N   0  0  0  0  0  0  0  0  0  0  0  0
   -0.3459   -1.1562    0.7469 C   0  0  0  0  0  0  0  0  0  0  0  0
   -0.4761   -0.5138   -0.6311 C   0  0  0  0  0  0  0  0  0  0  0  0
   -0.4461    1.0166   -0.6086 C   0  0  0  0  0  0  0  0  0  0  0  0
   -1.5474    1.6565    0.2413 C   0  0  0  0  0  0  0  0  0  0  0  0
   -2.9619    1.3470   -0.2519 C   0  0  0  0  0  0  0  0  0  0  0  0
   -4.0347    2.0417    0.5723 C   0  0  0  0  0  0  0  0  0  0  0  0
    3.5564   -1.4232   -0.7313 Cl  0  0  0  0  0  0  0  0  0  0  0  0
    0.9422    0.2341    1.6450 H   0  0  0  0  0  0  0  0  0  0  0  0
    1.7362   -0.9860    0.8364 H   0  0  0  0  0  0  0  0  0  0  0  0
    1.0420   -1.2807    2.3298 H   0  0  0  0  0  0  0  0  0  0  0  0
   -1.2024   -0.8829    1.3745 H   0  0  0  0  0  0  0  0  0  0  0  0
   -0.3934   -2.2493    0.6572 H   0  0  0  0  0  0  0  0  0  0  0  0
   -1.3995   -0.8560   -1.1159 H   0  0  0  0  0  0  0  0  0  0  0  0
    0.3339   -0.8858   -1.2724 H   0  0  0  0  0  0  0  0  0  0  0  0
   -0.5209    1.4009   -1.6348 H   0  0  0  0  0  0  0  0  0  0  0  0
    0.5368    1.3525   -0.2534 H   0  0  0  0  0  0  0  0  0  0  0  0
   -1.4111    2.7459    0.2691 H   0  0  0  0  0  0  0  0  0  0  0  0
   -1.4474    1.3368    1.2854 H   0  0  0  0  0  0  0  0  0  0  0  0
   -3.1273    0.2618   -0.2403 H   0  0  0  0  0  0  0  0  0  0  0  0
   -3.0490    1.6364   -1.3077 H   0  0  0  0  0  0  0  0  0  0  0  0
   -5.0417    1.8134    0.2136 H   0  0  0  0  0  0  0  0  0  0  0  0
   -3.9147    3.1271    0.5437 H   0  0  0  0  0  0  0  0  0  0  0  0
   -3.9839    1.7405    1.6211 H   0  0  0  0  0  0  0  0  0  0  0  0
  1  2  1  0  0  0  0
  2  3  1  0  0  0  0
  3  4  1  0  0  0  0
  4  5  1  0  0  0  0
  5  6  1  0  0  0  0
  6  7  1  0  0  0  0
  1  9  1  0  0  0  0
  1 10  1  0  0  0  0
  1 11  1  0  0  0  0
  2 12  1  0  0  0  0
  2 13  1  0  0  0  0
  3 14  1  0  0  0  0
  3 15  1  0  0  0  0
  4 16  1  0  0  0  0
  4 17  1  0  0  0  0
  5 18  1  0  0  0  0
  5 19  1  0  0  0  0
  6 20  1  0  0  0  0
  6 21  1  0  0  0  0
  7 22  1  0  0  0  0
  7 23  1  0  0  0  0
  7 24  1  0  0  0  0
M  END
