23
 xtb: 6.5.1 (fef0646)
N           -2.48397205813379        1.48730477523396       -0.70164941259709
C           -1.49529096568915        2.00592657947172        0.28515841239947
C           -0.18349080210086        1.28639964110644        0.21378812872097
C            1.00861685519603        1.98331790272685        0.06848216426623
C            2.21505724582089        1.31431987452729        0.00847678805484
C            2.26652198092727       -0.07573000574942        0.08307209308635
C            3.55457429009656       -0.77627509368136        0.02133236332932
C            3.69939613623889       -2.02188769888158       -0.42879454185846
C            1.06798945523707       -0.76987596389332        0.23136618437615
C           -0.13511604031911       -0.09682886375105        0.29677562494175
Cl          -3.21340476643543       -1.70359147557759        0.05830538953140
H           -3.34750057207923        2.09276166833505       -0.69324205559411
H           -2.72200039543559        0.54970622023869       -0.55549614703970
H           -2.07389602814553        1.61689102631747       -1.66433284448997
H           -1.90954097903525        1.88635233218307        1.31087631541500
H           -1.32525374105678        3.08955451300323        0.18622432641830
H            0.98742766502648        3.06168510124980        0.02654840427636
H            3.13157462730686        1.86711222726787       -0.10695402550756
H            4.42699211399327       -0.18592301495050        0.23634402071771
H            2.86883136790197       -2.64473735786777       -0.65946983392703
H            4.67498556228964       -2.49983054676436       -0.41688143298119
H            1.07655989529815       -1.84435603933673        0.27649310830616
H           -1.05937613192005       -0.64632253835271        0.38625823649941
