20
0.958
N           -2.62637   0.74551  -0.05870
C           -1.37110   0.05432  -0.48375
C           -0.49264  -0.34757   0.69611
C            0.75853  -1.14131   0.30081
C            1.75827  -0.37064  -0.57002
C            2.36107   0.84616   0.11930
H           -3.19836   1.00973  -0.86634
H           -2.40877   1.59567   0.46916
H           -3.18840   0.13616   0.54258
H           -0.81430   0.70856  -1.16304
H           -1.62933  -0.83376  -1.07165
H           -1.09572  -0.93576   1.39730
H           -0.20504   0.54725   1.25668
H            0.44715  -2.05550  -0.21843
H            1.27339  -1.48638   1.20534
H            1.27432  -0.06699  -1.50543
H            2.56581  -1.04690  -0.87991
H            1.60062   1.58866   0.36186
H            3.10474   1.34054  -0.50825
H            2.85331   0.56714   1.05173
