20
0.454
N           -2.92522   0.28853   0.21964
C           -1.48592   0.49215  -0.12748
C           -0.67668  -0.79876  -0.06337
C            0.78413  -0.64071  -0.50267
C            1.62184   0.24243   0.42664
C            3.08190   0.33301   0.00283
H           -3.01688  -0.09358   1.16536
H           -3.36353  -0.36987  -0.43094
H           -3.44715   1.16920   0.17972
H           -1.05671   1.23996   0.54778
H           -1.41476   0.92348  -1.13240
H           -1.17079  -1.55407  -0.68495
H           -0.71150  -1.19898   0.95529
H            0.81768  -0.23393  -1.51930
H            1.25721  -1.62744  -0.57289
H            1.55379  -0.14406   1.45076
H            1.18809   1.24811   0.46948
H            3.66270   0.96597   0.67594
H            3.17552   0.74856  -1.00112
H            3.55119  -0.65141  -0.00842
