20
0.381
N           -2.20804   0.93390  -0.08253
C           -1.65798  -0.38014  -0.53108
C           -0.72023  -1.02446   0.48778
C            0.56643  -0.23641   0.75552
C            1.49370  -0.12538  -0.45813
C            2.79733   0.59744  -0.14488
H           -1.46203   1.62622   0.04160
H           -2.69721   0.83491   0.81287
H           -2.87244   1.31266  -0.76584
H           -1.14327  -0.24907  -1.48872
H           -2.49665  -1.05505  -0.74252
H           -0.45404  -2.03541   0.15716
H           -1.26712  -1.16333   1.42738
H            1.11954  -0.70566   1.57820
H            0.31977   0.76610   1.11914
H            0.97414   0.38957  -1.27424
H            1.70760  -1.13017  -0.84221
H            3.35734   0.08056   0.63537
H            2.61026   1.61221   0.20823
H            3.44419   0.66834  -1.02103
