21
0.99
N           -3.27583   0.89449  -1.14337
C           -3.22601  -0.35810  -0.31570
C           -2.28350  -0.26232   0.89512
C           -0.84233  -0.15791   0.51377
C           -0.24494   1.08756   0.35598
F           -0.98344   2.19029   0.46725
C            1.10276   1.18862   0.01953
F            1.66265   2.38582  -0.13214
C            1.85610   0.03851  -0.17658
F            3.14555   0.13174  -0.49610
C            1.26037  -1.20921  -0.04590
F            1.97406  -2.31254  -0.25318
C           -0.08680  -1.30513   0.29434
F           -0.66011  -2.50444   0.38451
H           -3.95061   0.80397  -1.91142
H           -2.35697   1.10051  -1.55195
H           -3.55068   1.69852  -0.56779
H           -2.91410  -1.19735  -0.95631
H           -4.24890  -0.59147   0.02045
H           -2.40227  -1.14291   1.54597
H           -2.54742   0.60952   1.51068
