21
 xtb: 6.5.1 (fef0646)
N           -3.23875979188151        0.89382492749079       -1.15769347136508
C           -3.25328184015544       -0.33977743750746       -0.29396892500363
C           -2.28159364908116       -0.26992478965610        0.89556291983039
C           -0.84338531287102       -0.16367813017100        0.50540736834228
C           -0.25002688791552        1.08452342829946        0.35183994783276
F           -1.00036040442383        2.17943915815527        0.45775665403272
C            1.09823257966805        1.18976888946610        0.02116335278816
F            1.65601606552637        2.38828397874414       -0.12648457670986
C            1.85554679671030        0.04127077009325       -0.17257381185013
F            3.14546774145273        0.13889904242364       -0.48846899023503
C            1.26362603583975       -1.20843923752815       -0.04562798038563
F            1.98209890347804       -2.30931453949090       -0.25137353092137
C           -0.08441586775503       -1.30859488752980        0.29039948235138
F           -0.65401238184649       -2.51030649231075        0.37929770089286
H           -4.03926598682875        0.85673272489396       -1.83480312479530
H           -2.37729375289746        1.01114119757433       -1.66816717197376
H           -3.39747973602638        1.73056320141764       -0.54738323210627
H           -2.94467165269069       -1.20352856548599       -0.94605437270595
H           -4.25792921566960       -0.56335305519938        0.03874993231162
H           -2.40100042866563       -1.14733423180521        1.54323425092488
H           -2.54342145189483        0.60514977634318        1.51564792876146
