 xtb: 6.5.1 (fef0646)
          02032318253D

 21 21  0     0  0            999 V2000
   -3.2758    0.8945   -1.1434 N   0  0  0  0  0  0  0  0  0  0  0  0
   -3.2260   -0.3581   -0.3157 C   0  0  0  0  0  0  0  0  0  0  0  0
   -2.2835   -0.2623    0.8951 C   0  0  0  0  0  0  0  0  0  0  0  0
   -0.8423   -0.1579    0.5138 C   0  0  0  0  0  0  0  0  0  0  0  0
   -0.2449    1.0876    0.3560 C   0  0  0  0  0  0  0  0  0  0  0  0
   -0.9834    2.1903    0.4672 F   0  0  0  0  0  0  0  0  0  0  0  0
    1.1028    1.1886    0.0195 C   0  0  0  0  0  0  0  0  0  0  0  0
    1.6627    2.3858   -0.1321 F   0  0  0  0  0  0  0  0  0  0  0  0
    1.8561    0.0385   -0.1766 C   0  0  0  0  0  0  0  0  0  0  0  0
    3.1455    0.1317   -0.4961 F   0  0  0  0  0  0  0  0  0  0  0  0
    1.2604   -1.2092   -0.0459 C   0  0  0  0  0  0  0  0  0  0  0  0
    1.9740   -2.3126   -0.2532 F   0  0  0  0  0  0  0  0  0  0  0  0
   -0.0868   -1.3051    0.2943 C   0  0  0  0  0  0  0  0  0  0  0  0
   -0.6601   -2.5044    0.3845 F   0  0  0  0  0  0  0  0  0  0  0  0
   -3.9506    0.8040   -1.9114 H   0  0  0  0  0  0  0  0  0  0  0  0
   -2.3570    1.1005   -1.5519 H   0  0  0  0  0  0  0  0  0  0  0  0
   -3.5507    1.6985   -0.5678 H   0  0  0  0  0  0  0  0  0  0  0  0
   -2.9141   -1.1973   -0.9563 H   0  0  0  0  0  0  0  0  0  0  0  0
   -4.2489   -0.5914    0.0205 H   0  0  0  0  0  0  0  0  0  0  0  0
   -2.4023   -1.1429    1.5460 H   0  0  0  0  0  0  0  0  0  0  0  0
   -2.5474    0.6095    1.5107 H   0  0  0  0  0  0  0  0  0  0  0  0
  1  2  1  0  0  0  0
  2  3  1  0  0  0  0
  3  4  1  0  0  0  0
  4  5  4  0  0  0  0
  5  6  1  0  0  0  0
  5  7  4  0  0  0  0
  7  8  1  0  0  0  0
  7  9  4  0  0  0  0
  9 10  1  0  0  0  0
  9 11  4  0  0  0  0
 11 12  1  0  0  0  0
  4 13  4  0  0  0  0
 11 13  4  0  0  0  0
 13 14  1  0  0  0  0
  1 15  1  0  0  0  0
  1 16  1  0  0  0  0
  1 17  1  0  0  0  0
  2 18  1  0  0  0  0
  2 19  1  0  0  0  0
  3 20  1  0  0  0  0
  3 21  1  0  0  0  0
M  CHG  1   1   1
M  END
