28
 xtb: 6.5.1 (fef0646)
N            3.60913859134743       -0.82183901567657       -1.14479462814837
C            3.48914031535604        0.44354405044124       -0.36941236050589
C            2.76280365287763        0.23426370305702        0.94997804291423
O            1.50110352729227       -0.40046897394000        0.79891134452745
C            0.47932030952036        0.37534058840564        0.39282211370388
C            0.53160557545464        1.76698890644593        0.14201869119659
C           -0.57870900146768        2.45692007316869       -0.28222120560025
C           -1.78751664211220        1.82047398951898       -0.47796023895933
C           -1.92051888723092        0.44000202233077       -0.23724171137496
C           -3.14045439755421       -0.24100795893235       -0.41446413590012
C           -3.23299128697947       -1.58271769486722       -0.15686336556466
C           -2.12319413089078       -2.29297810651640        0.28501008909491
C           -0.92030816316917       -1.65421059280815        0.46563680523821
C           -0.79208982954922       -0.29185452547273        0.20751634557415
H            2.64818190154569       -1.17598557390428       -1.37256181077555
H            4.05206988335412       -1.54603452308279       -0.54023201578692
H            4.13563917789797       -0.70588234528607       -2.00168098750702
H            2.92919599390657        1.17271824536427       -0.98664498050414
H            4.47544988303782        0.87837348412544       -0.21346440402303
H            2.63163783670920        1.16027246571248        1.52896213446088
H            3.35486320069032       -0.43689720190094        1.58796189518772
H            1.45256351451491        2.30222687580491        0.29656895953120
H           -0.50089906531656        3.51689388133946       -0.46298289722601
H           -2.63959709917503        2.37972640741042       -0.81477315932694
H           -3.99858531821084        0.30964621315690       -0.75970654433101
H           -4.17191266960609       -2.08998986656140       -0.30399666574006
H           -2.21047304580646       -3.34729500113318        0.48522129344122
H           -0.05812396689446       -2.19530055661193        0.81695088113297
