28
 xtb: 6.5.1 (fef0646)
N            3.59953144075196       -0.79749753023070       -1.12978452059788
C            3.53547339185148        0.45156116670977       -0.32499073970610
C            2.75868174118042        0.22965321694981        0.96690261882096
O            1.50849398724831       -0.41376476541692        0.74820152304896
C            0.48180102197403        0.36817721355748        0.36334780043894
C            0.53521686195000        1.75943489288794        0.11229446765575
C           -0.57986302033144        2.45315897964844       -0.29363753787693
C           -1.79320665857090        1.82020162519641       -0.47369059000906
C           -1.92663359303216        0.43961630292436       -0.23381662993321
C           -3.15218449737611       -0.23698673856991       -0.39001029556885
C           -3.24512307890115       -1.57836577456981       -0.13066486074321
C           -2.12932754362861       -2.29318041483169        0.28896688816341
C           -0.92108047379390       -1.65869805605327        0.44971221039401
C           -0.79307108779295       -0.29632687792729        0.19161361041926
H            2.64022322366252       -1.16684690287321       -1.34033108577687
H            4.06374966787233       -1.54149932224227       -0.55502867307159
H            4.10915734561091       -0.69585643082883       -2.00737557912128
H            2.95619114649852        1.18773964374258       -0.97160883138220
H            4.49356652803273        0.86590187840254       -0.19007711071989
H            2.62220558731579        1.15688684960880        1.53505437161127
H            3.34710257651253       -0.43932250791357        1.59774561828543
H            1.45464762138460        2.29915815727558        0.28470282343906
H           -0.50111759587889        3.51578908647620       -0.46635108037513
H           -2.64229104527952        2.38065278548375       -0.80924802714740
H           -4.00316354958948        0.31178277904055       -0.74811788657679
H           -4.17677909738128       -2.08763280136319       -0.29139248628180
H           -2.21230856601013       -3.34730436624017        0.48655428417549
H           -0.05721660851459       -2.19772096200653        0.80796691574464
