36
 xtb: 6.5.1 (fef0646)
N           -4.90246403080052        0.28891801837032        1.66726545500414
C           -5.33333685136877        1.22266946147499        0.58858396396836
C           -4.62158226655429        0.93788550075461       -0.73234121122643
C           -3.12814422048062        0.97721904707273       -0.60551586806767
C           -2.44200425969928        2.18069214685544       -0.66502761804087
C           -1.07415631413313        2.22027996832727       -0.50487490152202
C           -0.34328513963737        1.05363842119172       -0.28097979974570
C            1.10281951479584        1.12828685030685       -0.11544180753689
C            1.93919759324949        0.08088131396589       -0.18718243983353
C            3.38567579490204        0.14195259925776       -0.02773682786296
C            4.14460986469400       -1.00978257105512       -0.23528101816833
C            5.51959115785530       -1.00316592168010       -0.10455973155050
F            6.23505836996041       -2.14359440900644       -0.31545541174491
C            6.15791168413728        0.17317351983326        0.24718995618211
C            5.42838443137044        1.32428716345931        0.46227421159345
C            4.05725516048713        1.31315964832418        0.32715336473468
C           -1.04169244367904       -0.15176987721529       -0.20906192292160
C           -2.40984423071710       -0.18461896131705       -0.36565090975507
Cl          -4.70369423644561       -2.85578882155867        0.22945538197024
H           -3.91074800202729        0.47097855750411        1.93090154166432
H           -4.97082476181811       -0.66833401489729        1.36845209665276
H           -5.45924848754080        0.41664965897870        2.54486323617911
H           -5.12814435975572        2.27111555428120        0.91136500636380
H           -6.41737028474575        1.17357557893019        0.47628626740795
H           -4.94536790562974        1.65490618932321       -1.49213806070542
H           -4.92986956169089       -0.04030673718180       -1.08570943176155
H           -2.99125714908089        3.09333864530103       -0.83711011320315
H           -0.54985531804009        3.15651106953439       -0.58362086008081
H            1.51914206519804        2.10534434320946       -0.03329847015725
H            1.52207171247900       -0.90971907477956       -0.33989280938295
H            3.66549297347350       -1.92995986849220       -0.51952906987375
H            7.22481843349412        0.17898354214614        0.35818010311700
H            5.91984970005939        2.23312380678512        0.76762836951253
H            3.48630423123777        2.20284867499715        0.53883709831065
H           -0.51577353852625       -1.06917594804225       -0.02483126763676
H           -2.94821745219247       -1.11496402570496       -0.28264361196198
