 xtb: 6.5.1 (fef0646)
          02032318363D

 36 36  0     0  0            999 V2000
   -4.8947    0.3175    1.6932 N   0  0  0  0  0  0  0  0  0  0  0  0
   -5.3285    1.2450    0.6098 C   0  0  0  0  0  0  0  0  0  0  0  0
   -4.6277    0.9494   -0.7144 C   0  0  0  0  0  0  0  0  0  0  0  0
   -3.1330    0.9829   -0.6015 C   0  0  0  0  0  0  0  0  0  0  0  0
   -2.4419    2.1827   -0.6736 C   0  0  0  0  0  0  0  0  0  0  0  0
   -1.0718    2.2156   -0.5335 C   0  0  0  0  0  0  0  0  0  0  0  0
   -0.3433    1.0465   -0.3139 C   0  0  0  0  0  0  0  0  0  0  0  0
    1.1047    1.1171   -0.1666 C   0  0  0  0  0  0  0  0  0  0  0  0
    1.9340    0.0641   -0.1674 C   0  0  0  0  0  0  0  0  0  0  0  0
    3.3813    0.1316   -0.0156 C   0  0  0  0  0  0  0  0  0  0  0  0
    4.1476   -1.0120   -0.2386 C   0  0  0  0  0  0  0  0  0  0  0  0
    5.5222   -0.9977   -0.1058 C   0  0  0  0  0  0  0  0  0  0  0  0
    6.2480   -2.1274   -0.3325 F   0  0  0  0  0  0  0  0  0  0  0  0
    6.1523    0.1788    0.2604 C   0  0  0  0  0  0  0  0  0  0  0  0
    5.4148    1.3216    0.4913 C   0  0  0  0  0  0  0  0  0  0  0  0
    4.0436    1.3023    0.3565 C   0  0  0  0  0  0  0  0  0  0  0  0
   -1.0472   -0.1550   -0.2288 C   0  0  0  0  0  0  0  0  0  0  0  0
   -2.4172   -0.1817   -0.3680 C   0  0  0  0  0  0  0  0  0  0  0  0
   -4.6866   -2.8827    0.2193 Cl  0  0  0  0  0  0  0  0  0  0  0  0
   -3.9081    0.4780    1.9362 H   0  0  0  0  0  0  0  0  0  0  0  0
   -4.9705   -0.6608    1.3771 H   0  0  0  0  0  0  0  0  0  0  0  0
   -5.4558    0.4264    2.5525 H   0  0  0  0  0  0  0  0  0  0  0  0
   -5.1247    2.2778    0.9154 H   0  0  0  0  0  0  0  0  0  0  0  0
   -6.4163    1.1814    0.4846 H   0  0  0  0  0  0  0  0  0  0  0  0
   -4.9479    1.6574   -1.4874 H   0  0  0  0  0  0  0  0  0  0  0  0
   -4.9335   -0.0372   -1.0784 H   0  0  0  0  0  0  0  0  0  0  0  0
   -2.9905    3.0946   -0.8383 H   0  0  0  0  0  0  0  0  0  0  0  0
   -0.5481    3.1544   -0.5949 H   0  0  0  0  0  0  0  0  0  0  0  0
    1.5230    2.1030   -0.0717 H   0  0  0  0  0  0  0  0  0  0  0  0
    1.5194   -0.9173   -0.3120 H   0  0  0  0  0  0  0  0  0  0  0  0
    3.6682   -1.9303   -0.5245 H   0  0  0  0  0  0  0  0  0  0  0  0
    7.2231    0.1823    0.3624 H   0  0  0  0  0  0  0  0  0  0  0  0
    5.9140    2.2321    0.7801 H   0  0  0  0  0  0  0  0  0  0  0  0
    3.4798    2.1968    0.5531 H   0  0  0  0  0  0  0  0  0  0  0  0
   -0.5183   -1.0712   -0.0334 H   0  0  0  0  0  0  0  0  0  0  0  0
   -2.9512   -1.1135   -0.2814 H   0  0  0  0  0  0  0  0  0  0  0  0
  1  2  1  0  0  0  0
  2  3  1  0  0  0  0
  3  4  1  0  0  0  0
  4  5  4  0  0  0  0
  5  6  4  0  0  0  0
  6  7  4  0  0  0  0
  7  8  1  0  0  0  0
  8  9  2  0  0  0  0
  9 10  1  0  0  0  0
 10 11  4  0  0  0  0
 11 12  4  0  0  0  0
 12 13  1  0  0  0  0
 12 14  4  0  0  0  0
 14 15  4  0  0  0  0
 10 16  4  0  0  0  0
 15 16  4  0  0  0  0
  7 17  4  0  0  0  0
  4 18  4  0  0  0  0
 17 18  4  0  0  0  0
  1 20  1  0  0  0  0
  1 21  1  0  0  0  0
  1 22  1  0  0  0  0
  2 23  1  0  0  0  0
  2 24  1  0  0  0  0
  3 25  1  0  0  0  0
  3 26  1  0  0  0  0
  5 27  1  0  0  0  0
  6 28  1  0  0  0  0
  8 29  1  0  0  0  0
  9 30  1  0  0  0  0
 11 31  1  0  0  0  0
 14 32  1  0  0  0  0
 15 33  1  0  0  0  0
 16 34  1  0  0  0  0
 17 35  1  0  0  0  0
 18 36  1  0  0  0  0
M  END
