 xtb: 6.5.1 (fef0646)
          01232318513D

 19 18  0     0  0            999 V2000
    3.1261   -0.8575   -0.5100 N   0  0  0  0  0  0  0  0  0  0  0  0
    2.3249    0.3014   -0.0924 C   0  0  0  0  0  0  0  0  0  0  0  0
    2.8131    0.8212    1.2338 C   0  0  0  0  0  0  0  0  0  0  0  0
    3.4416    2.0559    1.3198 C   0  0  0  0  0  0  0  0  0  0  0  0
    3.9058    2.5255    2.5367 C   0  0  0  0  0  0  0  0  0  0  0  0
    3.7509    1.7594    3.6784 C   0  0  0  0  0  0  0  0  0  0  0  0
    3.1290    0.5240    3.5988 C   0  0  0  0  0  0  0  0  0  0  0  0
    2.6606    0.0566    2.3845 C   0  0  0  0  0  0  0  0  0  0  0  0
    2.4485   -3.3251    0.9158 Cl  0  0  0  0  0  0  0  0  0  0  0  0
    2.9177   -1.1118   -1.4698 H   0  0  0  0  0  0  0  0  0  0  0  0
    2.7797   -2.1418    0.2955 H   0  0  0  0  0  0  0  0  0  0  0  0
    4.1171   -0.6523   -0.4326 H   0  0  0  0  0  0  0  0  0  0  0  0
    1.2890   -0.0386   -0.0048 H   0  0  0  0  0  0  0  0  0  0  0  0
    2.3622    1.1093   -0.8359 H   0  0  0  0  0  0  0  0  0  0  0  0
    3.5650    2.6594    0.4308 H   0  0  0  0  0  0  0  0  0  0  0  0
    4.3895    3.4900    2.5911 H   0  0  0  0  0  0  0  0  0  0  0  0
    4.1136    2.1243    4.6280 H   0  0  0  0  0  0  0  0  0  0  0  0
    3.0071   -0.0771    4.4873 H   0  0  0  0  0  0  0  0  0  0  0  0
    2.1787   -0.9061    2.3216 H   0  0  0  0  0  0  0  0  0  0  0  0
  1  2  1  0  0  0  0
  2  3  1  0  0  0  0
  3  4  4  0  0  0  0
  4  5  4  0  0  0  0
  5  6  4  0  0  0  0
  6  7  4  0  0  0  0
  3  8  4  0  0  0  0
  7  8  4  0  0  0  0
  1 10  1  0  0  0  0
  9 11  1  0  0  0  0
  1 12  1  0  0  0  0
  2 13  1  0  0  0  0
  2 14  1  0  0  0  0
  4 15  1  0  0  0  0
  5 16  1  0  0  0  0
  6 17  1  0  0  0  0
  7 18  1  0  0  0  0
  8 19  1  0  0  0  0
M  END
