28
0.0
N           -2.61273   0.73600   1.49746
C           -2.74770   1.86041   0.53517
C           -2.00247   1.58711  -0.76941
C           -0.55415   1.26321  -0.55150
C           -0.15070  -0.03743  -0.39378
C            1.19959  -0.36365  -0.14456
C            1.62993  -1.69922   0.01888
C            2.94308  -1.98141   0.26134
C            3.88473  -0.94924   0.35279
C            3.50133   0.35206   0.20151
C            2.14974   0.67934  -0.05039
C            1.71332   2.01337  -0.20628
C            0.39894   2.29261  -0.44651
Cl          -2.92195  -2.24970  -0.29562
H           -2.86270  -0.16194   1.04619
H           -3.20881   0.85420   2.33386
H           -1.63463   0.64376   1.81920
H           -2.36462   2.77878   0.99655
H           -3.80970   2.05011   0.33345
H           -2.08542   2.44367  -1.44973
H           -2.47710   0.75022  -1.29504
H           -0.87924  -0.82896  -0.44595
H            0.90402  -2.49264  -0.05083
H            3.26040  -3.00510   0.38385
H            4.91942  -1.18705   0.54468
H            4.22592   1.14636   0.27311
H            2.43451   2.81053  -0.12993
H            0.07397   3.31436  -0.55706
