28

N          1.22573        0.00757        0.00549
C          2.67888       -0.01082        0.00701
C          3.18327       -0.75651        1.24289
C          4.68923       -0.78603        1.27891
C          5.41535        0.41390        1.32518
C          6.81367        0.41805        1.24300
C          7.52988        1.62347        1.20818
C          8.91919        1.61928        1.09141
C          9.60598        0.41068        1.02584
C          8.90881       -0.79647        1.06963
C          7.50649       -0.81025        1.16929
C          6.77937       -2.01021        1.18542
C          5.38294       -1.99925        1.23212
Cl        -1.31550       -0.28536       -1.09049
H          0.76983        0.48495       -0.80362
H          0.74307        0.42745        0.80702
H          0.74010       -0.90182       -0.12795
H          3.00148        1.03487       -0.00321
H          3.00742       -0.48825       -0.92174
H          2.78386       -1.77915        1.24164
H          2.81589       -0.28015        2.16075
H          4.89019        1.36469        1.40144
H          7.01062        2.57817        1.25502
H          9.46257        2.55915        1.04769
H         10.68937        0.40709        0.93106
H          9.46408       -1.72913        1.01126
H          7.29713       -2.96703        1.14027
H          4.85024       -2.94814        1.21841
