 xtb: 6.5.1 (fef0646)
          01242310103D

 21 19  0     0  0            999 V2000
   -0.1499   -1.2621    1.1693 N   0  0  0  0  0  0  0  0  0  0  0  0
    0.6763   -1.8086    0.0587 C   0  0  0  0  0  0  0  0  0  0  0  0
    0.9859   -0.7748   -1.0293 C   0  0  0  0  0  0  0  0  0  0  0  0
    2.2661    0.0358   -0.7947 C   0  0  0  0  0  0  0  0  0  0  0  0
    2.2541    0.9353    0.4439 C   0  0  0  0  0  0  0  0  0  0  0  0
    1.1600    1.9921    0.4139 C   0  0  0  0  0  0  0  0  0  0  0  0
   -2.8671    0.4000   -0.2104 Cl  0  0  0  0  0  0  0  0  0  0  0  0
    0.3516   -0.5363    1.7032 H   0  0  0  0  0  0  0  0  0  0  0  0
   -0.4341   -1.9949    1.8414 H   0  0  0  0  0  0  0  0  0  0  0  0
   -1.0137   -0.8221    0.8005 H   0  0  0  0  0  0  0  0  0  0  0  0
    0.1396   -2.6615   -0.3788 H   0  0  0  0  0  0  0  0  0  0  0  0
    1.6092   -2.2293    0.4531 H   0  0  0  0  0  0  0  0  0  0  0  0
    0.1299   -0.0987   -1.1373 H   0  0  0  0  0  0  0  0  0  0  0  0
    1.0621   -1.2823   -2.0018 H   0  0  0  0  0  0  0  0  0  0  0  0
    2.4659    0.6604   -1.6760 H   0  0  0  0  0  0  0  0  0  0  0  0
    3.1170   -0.6563   -0.7389 H   0  0  0  0  0  0  0  0  0  0  0  0
    3.2319    1.4279    0.5460 H   0  0  0  0  0  0  0  0  0  0  0  0
    2.1660    0.3188    1.3469 H   0  0  0  0  0  0  0  0  0  0  0  0
    1.1985    2.6470    1.2884 H   0  0  0  0  0  0  0  0  0  0  0  0
    0.1649    1.5439    0.3913 H   0  0  0  0  0  0  0  0  0  0  0  0
    1.2468    2.6244   -0.4727 H   0  0  0  0  0  0  0  0  0  0  0  0
  1  2  1  0  0  0  0
  2  3  1  0  0  0  0
  3  4  1  0  0  0  0
  4  5  1  0  0  0  0
  5  6  1  0  0  0  0
  1  8  1  0  0  0  0
  1  9  1  0  0  0  0
  1 10  1  0  0  0  0
  2 11  1  0  0  0  0
  2 12  1  0  0  0  0
  3 13  1  0  0  0  0
  3 14  1  0  0  0  0
  4 15  1  0  0  0  0
  4 16  1  0  0  0  0
  5 17  1  0  0  0  0
  5 18  1  0  0  0  0
  6 19  1  0  0  0  0
  6 20  1  0  0  0  0
  6 21  1  0  0  0  0
M  END
