 xtb: 6.5.1 (fef0646)
          01242316573D

 16 15  0     0  0            999 V2000
    3.1988   -1.0393    0.6322 N   0  0  0  0  0  0  0  0  0  0  0  0
    2.6147   -0.3770   -0.5704 C   0  0  0  0  0  0  0  0  0  0  0  0
    1.4170    0.4331   -0.2353 C   0  0  0  0  0  0  0  0  0  0  0  0
    1.4199    1.7472    0.0972 C   0  0  0  0  0  0  0  0  0  0  0  0
    0.1229    2.2645    0.3875 C   0  0  0  0  0  0  0  0  0  0  0  0
   -0.8558    1.3408    0.2755 C   0  0  0  0  0  0  0  0  0  0  0  0
   -0.2095   -0.1929   -0.1917 S   0  0  0  0  0  0  0  0  0  0  0  0
   -3.1301   -1.3236   -0.1092 Cl  0  0  0  0  0  0  0  0  0  0  0  0
    2.5052   -1.6547    1.0744 H   0  0  0  0  0  0  0  0  0  0  0  0
    3.4779   -0.3369    1.3327 H   0  0  0  0  0  0  0  0  0  0  0  0
    4.0256   -1.6046    0.3988 H   0  0  0  0  0  0  0  0  0  0  0  0
    2.3405   -1.1317   -1.3162 H   0  0  0  0  0  0  0  0  0  0  0  0
    3.3652    0.2607   -1.0517 H   0  0  0  0  0  0  0  0  0  0  0  0
    2.3199    2.3407    0.1397 H   0  0  0  0  0  0  0  0  0  0  0  0
   -0.0544    3.2919    0.6694 H   0  0  0  0  0  0  0  0  0  0  0  0
   -1.9005    1.5161    0.4494 H   0  0  0  0  0  0  0  0  0  0  0  0
  1  2  1  0  0  0  0
  2  3  1  0  0  0  0
  3  4  2  0  0  0  0
  4  5  4  0  0  0  0
  5  6  2  0  0  0  0
  3  7  1  0  0  0  0
  6  7  1  0  0  0  0
  1  9  1  0  0  0  0
  1 10  1  0  0  0  0
  1 11  1  0  0  0  0
  2 12  1  0  0  0  0
  2 13  1  0  0  0  0
  4 14  1  0  0  0  0
  5 15  1  0  0  0  0
  6 16  1  0  0  0  0
M  END
