  27

 N          0.8145581332        0.2557564024       -0.1240339825
 C          2.2952492967        0.1949933155       -0.0451689834
 C          2.8670017781       -0.3938856684       -1.3300388244
 C          4.4008044286       -0.3928671388       -1.3519298573
 C          4.8970851789       -0.7468232424       -2.7573028873
 C          6.4214219716       -0.7442903123       -2.8218449557
 C          6.9995138678       -1.7291053633       -1.8104881951
 C          6.5165014822       -1.3808479357       -0.4062985293
 C          4.9910591662       -1.3817269495       -0.3431145929
 H          0.4182341640        0.6441408262        0.7393466268
 H          0.4320339976       -0.6862659101       -0.2684363390
 H          0.5262287274        0.8447421627       -0.9141698606
 H          2.5762226776       -0.4182468610        0.8093319201
 H          2.6879029137        1.2005955515        0.1039373687
 H          2.5232809402        0.1930584769       -2.1833907020
 H          2.5235759607       -1.4207554622       -1.4623899772
 H          4.7640093356        0.6108293480       -1.1065643181
 H          4.5061750538       -0.0315364843       -3.4838620227
 H          4.5325985243       -1.7390377132       -3.0331219498
 H          6.7969448276        0.2583776261       -2.6029712922
 H          6.7514531874       -1.0081088545       -3.8290326724
 H          8.0909491587       -1.7069938418       -1.8479679171
 H          6.6806952258       -2.7426958594       -2.0661045338
 H          6.8942730579       -0.3925131133       -0.1330318994
 H          6.9182934676       -2.0988458623        0.3119378781
 H          4.6881221018       -1.1243641015        0.6719541396
 H          4.6293013750       -2.3878730353       -0.5659336410
