 xtb: 6.5.1 (fef0646)
          01242314583D

 37 39  0     0  0            999 V2000
    0.8756   -1.4724    1.1657 N   0  0  0  0  0  0  0  0  0  0  0  0
    2.1168   -1.0222    1.8187 C   0  0  0  0  0  0  0  0  0  0  0  0
    3.3272   -1.3778    0.9444 C   0  0  0  0  0  0  0  0  0  0  0  0
    4.5064   -0.7491    1.4051 O   0  0  0  0  0  0  0  0  0  0  0  0
    5.1948   -1.2673    2.4626 C   0  0  0  0  0  0  0  0  0  0  0  0
    6.3333   -0.5345    2.8627 C   0  0  0  0  0  0  0  0  0  0  0  0
    6.7163    0.6705    2.2062 C   0  0  0  0  0  0  0  0  0  0  0  0
    7.8126    1.3628    2.5956 C   0  0  0  0  0  0  0  0  0  0  0  0
    7.1183   -1.0056    3.9398 C   0  0  0  0  0  0  0  0  0  0  0  0
    6.7644   -2.2011    4.6136 C   0  0  0  0  0  0  0  0  0  0  0  0
    5.6332   -2.8936    4.1880 C   0  0  0  0  0  0  0  0  0  0  0  0
    4.8616   -2.4373    3.1357 C   0  0  0  0  0  0  0  0  0  0  0  0
    7.5773   -2.6501    5.6948 C   0  0  0  0  0  0  0  0  0  0  0  0
    8.6743   -1.9588    6.0810 C   0  0  0  0  0  0  0  0  0  0  0  0
    9.0584   -0.7528    5.4220 C   0  0  0  0  0  0  0  0  0  0  0  0
   10.1869   -0.0255    5.8023 C   0  0  0  0  0  0  0  0  0  0  0  0
   10.5322    1.1400    5.1416 C   0  0  0  0  0  0  0  0  0  0  0  0
    9.7651    1.6081    4.0911 C   0  0  0  0  0  0  0  0  0  0  0  0
    8.6270    0.9134    3.6754 C   0  0  0  0  0  0  0  0  0  0  0  0
    8.2660   -0.2815    4.3453 C   0  0  0  0  0  0  0  0  0  0  0  0
    0.8363   -0.4259   -1.6878 Cl  0  0  0  0  0  0  0  0  0  0  0  0
    0.0499   -1.1491    1.6754 H   0  0  0  0  0  0  0  0  0  0  0  0
    0.8478   -2.4915    1.0788 H   0  0  0  0  0  0  0  0  0  0  0  0
    0.8236   -1.0820    0.1860 H   0  0  0  0  0  0  0  0  0  0  0  0
    2.2069   -1.4738    2.8082 H   0  0  0  0  0  0  0  0  0  0  0  0
    2.0951    0.0627    1.9255 H   0  0  0  0  0  0  0  0  0  0  0  0
    3.1632   -0.9714   -0.0579 H   0  0  0  0  0  0  0  0  0  0  0  0
    3.4690   -2.4601    0.8636 H   0  0  0  0  0  0  0  0  0  0  0  0
    6.1043    1.0129    1.3860 H   0  0  0  0  0  0  0  0  0  0  0  0
    8.0946    2.2759    2.0911 H   0  0  0  0  0  0  0  0  0  0  0  0
    5.3547   -3.8067    4.6925 H   0  0  0  0  0  0  0  0  0  0  0  0
    4.0042   -3.0197    2.8428 H   0  0  0  0  0  0  0  0  0  0  0  0
    7.2946   -3.5627    6.1994 H   0  0  0  0  0  0  0  0  0  0  0  0
    9.2872   -2.3061    6.9002 H   0  0  0  0  0  0  0  0  0  0  0  0
   10.7929   -0.3832    6.6221 H   0  0  0  0  0  0  0  0  0  0  0  0
   11.4100    1.6892    5.4494 H   0  0  0  0  0  0  0  0  0  0  0  0
   10.0417    2.5189    3.5800 H   0  0  0  0  0  0  0  0  0  0  0  0
  1  2  1  0  0  0  0
  2  3  1  0  0  0  0
  3  4  1  0  0  0  0
  4  5  1  0  0  0  0
  5  6  4  0  0  0  0
  6  7  4  0  0  0  0
  7  8  2  0  0  0  0
  6  9  4  0  0  0  0
  9 10  4  0  0  0  0
 10 11  4  0  0  0  0
  5 12  4  0  0  0  0
 11 12  4  0  0  0  0
 10 13  4  0  0  0  0
 13 14  2  0  0  0  0
 14 15  1  0  0  0  0
 15 16  4  0  0  0  0
 16 17  4  0  0  0  0
 17 18  4  0  0  0  0
  8 19  4  0  0  0  0
 18 19  4  0  0  0  0
  9 20  4  0  0  0  0
 15 20  4  0  0  0  0
 19 20  4  0  0  0  0
  1 22  1  0  0  0  0
  1 23  1  0  0  0  0
  1 24  1  0  0  0  0
  2 25  1  0  0  0  0
  2 26  1  0  0  0  0
  3 27  1  0  0  0  0
  3 28  1  0  0  0  0
  7 29  1  0  0  0  0
  8 30  1  0  0  0  0
 11 31  1  0  0  0  0
 12 32  1  0  0  0  0
 13 33  1  0  0  0  0
 14 34  1  0  0  0  0
 16 35  1  0  0  0  0
 17 36  1  0  0  0  0
 18 37  1  0  0  0  0
M  END
