18
2.865
N           -2.75791   0.34138  -0.33858
C           -2.40476  -0.91620   0.38120
C           -0.89816  -1.11103   0.52692
C           -0.24112  -0.08772   1.45388
C            1.26081  -0.28732   1.58380
I            2.37495   0.06181  -0.20491
Cl          -6.25895   0.57222  -0.69255
H           -2.43142   1.17130   0.17381
H           -3.77881   0.43596  -0.46257
H           -2.32442   0.36402  -1.27431
H           -2.84487  -1.76840  -0.15192
H           -2.87448  -0.91733   1.37162
H           -0.42805  -1.06040  -0.46141
H           -0.68089  -2.12075   0.89653
H           -0.71883  -0.13231   2.44207
H           -0.43516   0.92545   1.08207
H            1.49174  -1.30717   1.89709
H            1.69076   0.38301   2.33185
