20
 xtb: 6.5.1 (fef0646)
N           -2.62884513463602        0.44446389150186       -0.35345459019597
C           -1.79398077539910       -0.39790937711063        0.55943126693703
C           -0.37174208677530       -0.63141975422440        0.05338049892745
C            0.48718279259518        0.63179166187793       -0.03428730369751
C            1.90710994554292        0.37248482696928       -0.55509227422278
C            2.76451021367960       -0.47209967694607        0.37850638546900
H           -2.33519556459646        1.42863943232650       -0.34530865405331
H           -3.62700532613495        0.40507643297650       -0.07231633683338
H           -2.55926540631794        0.08711495936471       -1.32862091001168
H           -2.29283150842120       -1.36095922420589        0.70768212197132
H           -1.75106071743090        0.07396150252307        1.54440857360018
H           -0.42844493119684       -1.08434270638527       -0.96261070578644
H            0.12349850357241       -1.38457186807822        0.66163404882385
H            0.53682064752175        1.08029271836244        0.97366314162062
H           -0.01275357976396        1.37055687328903       -0.65381057173554
H            2.40584060741036        1.34916607995397       -0.70881830005082
H            1.85265690396452       -0.08051912415503       -1.53653635814031
H            2.35669915358804       -1.47523111751783        0.49237531859549
H            2.83035794850979       -0.03109900320815        1.37501892846960
H            3.78361670000561       -0.57892144735390        0.00167136796627
