34
 xtb: 6.5.1 (fef0646)
N            4.58077387727644       -0.76869602220909       -0.39076181172293
C            3.91025991545378       -0.65330505917617       -1.71650202746878
C            2.91589059620463        0.50448899055438       -1.76786944834838
C            1.79146085275855        0.36222120020779       -0.78566198230262
C            0.80040119845990       -0.58880837825681       -0.98277816575602
C           -0.23609215352476       -0.72284166249728       -0.08669407670840
C            1.72414258000162        1.16817547775295        0.34276895005352
C            0.68775333430377        1.04000997746230        1.24017354446488
C           -0.31393446202453        0.09601144480902        1.03515873650416
N           -1.38677324045860       -0.00881845454549        1.92297459402022
N           -2.58116835066827        0.08376845596769        1.57907555789770
C           -2.99064009721409        0.43922218700080        0.29340582480126
C           -2.48959599913677        1.58186961194352       -0.32833025830283
C           -2.87345404531522        1.90971758236433       -1.60917896317136
C           -3.76856691159436        1.10482090079872       -2.28990997167659
C           -4.28152327795689       -0.02698294877285       -1.68283985402722
C           -3.89882175446566       -0.35758165954650       -0.40151616004754
Cl           2.44118152322800       -1.78483404977957        2.17590740943828
H            5.28490703319684       -1.52618331046775       -0.38138002622877
H            3.89449533126020       -0.98492518396651        0.35016730638429
H            5.05079468055412        0.10594420306339       -0.14043517593246
H            3.39026746417031       -1.60046481596624       -1.94405610735703
H            4.66878957534878       -0.54824718968335       -2.50112204201238
H            2.49854364846172        0.59745974619243       -2.78018132831056
H            3.44889793189151        1.43911642413069       -1.58558019760164
H            0.83935105181944       -1.21342639093955       -1.85780717319658
H           -1.01384000359283       -1.43880293503520       -0.25077979536156
H            2.50381479186914        1.90205932306145        0.50542104325976
H            0.64599276679910        1.67946525905222        2.10612663745778
H           -1.84642247988973        2.23798975241571        0.23301939765706
H           -2.53744503269204        2.82881546300602       -2.05511759500580
H           -4.07397517100663        1.35684359525558       -3.28946081362675
H           -4.92144037574040       -0.69655509318954       -2.23479821880009
H           -4.22291949440147       -1.28050370470650        0.05401235379049
