 xtb: 6.5.1 (fef0646)
          02032320163D

 25 25  0     0  0            999 V2000
   -4.5616    0.1344    0.6068 N   0  0  0  0  0  0  0  0  0  0  0  0
   -3.0814   -0.0098    0.7488 C   0  0  0  0  0  0  0  0  0  0  0  0
   -2.3373    0.1779   -0.5692 C   0  0  0  0  0  0  0  0  0  0  0  0
   -0.8505    0.0350   -0.4240 C   0  0  0  0  0  0  0  0  0  0  0  0
   -0.0571    1.1334   -0.1283 C   0  0  0  0  0  0  0  0  0  0  0  0
    1.3025    1.0042    0.0362 C   0  0  0  0  0  0  0  0  0  0  0  0
    1.9197   -0.2409   -0.0853 C   0  0  0  0  0  0  0  0  0  0  0  0
    3.2849   -0.4764    0.0608 O   0  0  0  0  0  0  0  0  0  0  0  0
    4.0702    0.6555    0.3489 C   0  0  0  0  0  0  0  0  0  0  0  0
    1.1141   -1.3425   -0.3745 C   0  0  0  0  0  0  0  0  0  0  0  0
   -0.2434   -1.2067   -0.5374 C   0  0  0  0  0  0  0  0  0  0  0  0
   -5.0365    0.0029    1.5055 H   0  0  0  0  0  0  0  0  0  0  0  0
   -4.9311   -0.5578   -0.0524 H   0  0  0  0  0  0  0  0  0  0  0  0
   -4.8018    1.0661    0.2540 H   0  0  0  0  0  0  0  0  0  0  0  0
   -2.8492   -0.9967    1.1648 H   0  0  0  0  0  0  0  0  0  0  0  0
   -2.7134    0.7139    1.4849 H   0  0  0  0  0  0  0  0  0  0  0  0
   -2.5688    1.1613   -0.9898 H   0  0  0  0  0  0  0  0  0  0  0  0
   -2.7008   -0.5435   -1.3074 H   0  0  0  0  0  0  0  0  0  0  0  0
   -0.5187    2.1013   -0.0274 H   0  0  0  0  0  0  0  0  0  0  0  0
    1.8914    1.8748    0.2619 H   0  0  0  0  0  0  0  0  0  0  0  0
    5.1072    0.3264    0.4306 H   0  0  0  0  0  0  0  0  0  0  0  0
    3.7549    1.0887    1.3000 H   0  0  0  0  0  0  0  0  0  0  0  0
    3.9856    1.3783   -0.4647 H   0  0  0  0  0  0  0  0  0  0  0  0
    1.5873   -2.3051   -0.4660 H   0  0  0  0  0  0  0  0  0  0  0  0
   -0.8477   -2.0708   -0.7562 H   0  0  0  0  0  0  0  0  0  0  0  0
  1  2  1  0  0  0  0
  2  3  1  0  0  0  0
  3  4  1  0  0  0  0
  4  5  4  0  0  0  0
  5  6  4  0  0  0  0
  6  7  4  0  0  0  0
  7  8  1  0  0  0  0
  8  9  1  0  0  0  0
  7 10  4  0  0  0  0
  4 11  4  0  0  0  0
 10 11  4  0  0  0  0
  1 12  1  0  0  0  0
  1 13  1  0  0  0  0
  1 14  1  0  0  0  0
  2 15  1  0  0  0  0
  2 16  1  0  0  0  0
  3 17  1  0  0  0  0
  3 18  1  0  0  0  0
  5 19  1  0  0  0  0
  6 20  1  0  0  0  0
  9 21  1  0  0  0  0
  9 22  1  0  0  0  0
  9 23  1  0  0  0  0
 10 24  1  0  0  0  0
 11 25  1  0  0  0  0
M  CHG  1   1   1
M  END
