48
0.0
N           -8.42403  -2.10495  -0.14565
C           -8.80919  -0.86457   0.58708
C           -8.29718   0.40922  -0.08962
C           -6.81991   0.59195  -0.00046
C           -6.17460   1.78494   0.08840
C           -4.75909   1.67800   0.14314
C           -4.29585   0.39321   0.09401
C           -2.91567  -0.00698   0.12892
C           -2.45442  -1.29118   0.07398
C           -1.04442  -1.41668   0.12500
C           -0.38378  -2.74914   0.07339
C           -0.38882  -0.20254   0.22190
C            1.03350   0.00539   0.28860
C            1.69302   1.21672   0.38647
C            1.05977   2.46858   0.44301
N            0.53068   3.50087   0.48820
C            3.12796   1.09856   0.41720
C            3.95504   2.23068   0.50540
N            4.64465   3.16143   0.57735
C            3.58444  -0.20312   0.34403
C            4.95932  -0.64123   0.34009
C            5.41003  -1.94218   0.25695
C            4.54567  -3.14919   0.15202
C            6.83163  -2.04598   0.27985
C            7.46865  -0.86063   0.37627
S            6.33963   0.43464   0.44143
S            2.21515  -1.26814   0.25243
S           -1.57256   1.08729   0.24912
S           -5.65295  -0.69372  -0.01749
Cl           2.30529   0.56493  -3.03132
H           -7.40173  -2.13626  -0.25024
H           -8.83183  -2.11754  -1.08809
H           -8.72313  -2.95562   0.34701
H           -8.42157  -0.90927   1.61122
H           -9.90131  -0.83317   0.68338
H           -8.78515   1.28819   0.34731
H           -8.58774   0.40338  -1.14531
H           -6.69475   2.72992   0.11007
H           -4.10141   2.53010   0.21416
H           -3.11469  -2.13960  -0.00295
H            0.21134  -2.92076   0.96996
H            0.27375  -2.82155  -0.79306
H           -1.11810  -3.55167   0.00235
H            3.89558  -3.23635   1.02272
H            5.14298  -4.05891   0.08968
H            3.91977  -3.10029  -0.73870
H            7.34565  -2.99327   0.22450
H            8.53283  -0.72479   0.40838
