  25

 N          2.9682685433        0.2808755012       -2.8770172785
 C          2.5231016964        1.4412050677       -2.0680676055
 C          3.0479096043        1.3115390285       -0.6386344406
 C          4.5531820117        1.3709174793       -0.5956699428
 C          5.2149693558        2.5786650412       -0.7680948249
 C          6.5969325935        2.6540800757       -0.7451175326
 C          7.3484628503        1.5015925901       -0.5416217653
 O          8.7134593183        1.4512822312       -0.4903406920
 C          9.4422894468        2.6505214376       -0.6465790007
 C          6.6921268844        0.2826282481       -0.3689916736
 C          5.3142323106        0.2221951784       -0.3993794212
 H          2.6987572313        0.3908986471       -3.8607039440
 H          2.5551068225       -0.5861010024       -2.5140191048
 H          3.9909623713        0.1979718260       -2.8156601351
 H          1.4346964611        1.4805296793       -2.0627538435
 H          2.9089020286        2.3559216964       -2.5169919526
 H          2.7045669510        0.3774456919       -0.1949774770
 H          2.6397024083        2.1297528300       -0.0462780063
 H          4.6493587860        3.4871774491       -0.9110797428
 H          7.0763188617        3.6110971436       -0.8743073854
 H         10.4891996818        2.3674217829       -0.5610916367
 H          9.1960361588        3.3710384871        0.1384532180
 H          9.2650989878        3.0970481347       -1.6289598642
 H          7.2911601526       -0.5990221470       -0.2043431697
 H          4.8328384819       -0.7309220977       -0.2406827781
