 xtb: 6.5.1 (fef0646)
          01242317083D

 27 27  0     0  0            999 V2000
   -3.8940    0.0064    0.0737 N   0  0  0  0  0  0  0  0  0  0  0  0
   -2.5083    0.3919   -0.3306 C   0  0  0  0  0  0  0  0  0  0  0  0
   -1.4516   -0.5504    0.2329 C   0  0  0  0  0  0  0  0  0  0  0  0
   -0.0142   -0.2380   -0.2281 C   0  0  0  0  0  0  0  0  0  0  0  0
    0.9669   -1.3645    0.1800 C   0  0  0  0  0  0  0  0  0  0  0  0
    2.3976   -1.0765   -0.3061 C   0  0  0  0  0  0  0  0  0  0  0  0
    2.8974    0.2808    0.2174 C   0  0  0  0  0  0  0  0  0  0  0  0
    1.9338    1.4135   -0.1763 C   0  0  0  0  0  0  0  0  0  0  0  0
    0.5016    1.1207    0.3053 C   0  0  0  0  0  0  0  0  0  0  0  0
   -4.5904    0.6517   -0.3129 H   0  0  0  0  0  0  0  0  0  0  0  0
   -3.9869    0.0118    1.0942 H   0  0  0  0  0  0  0  0  0  0  0  0
   -4.1175   -0.9374   -0.2570 H   0  0  0  0  0  0  0  0  0  0  0  0
   -2.3114    1.4186   -0.0052 H   0  0  0  0  0  0  0  0  0  0  0  0
   -2.4420    0.4098   -1.4243 H   0  0  0  0  0  0  0  0  0  0  0  0
   -1.7050   -1.5773   -0.0489 H   0  0  0  0  0  0  0  0  0  0  0  0
   -1.4879   -0.5349    1.3259 H   0  0  0  0  0  0  0  0  0  0  0  0
   -0.0153   -0.1831   -1.3275 H   0  0  0  0  0  0  0  0  0  0  0  0
    0.6127   -2.3309   -0.1978 H   0  0  0  0  0  0  0  0  0  0  0  0
    0.9618   -1.4567    1.2709 H   0  0  0  0  0  0  0  0  0  0  0  0
    2.4148   -1.0719   -1.4019 H   0  0  0  0  0  0  0  0  0  0  0  0
    3.0784   -1.8831   -0.0050 H   0  0  0  0  0  0  0  0  0  0  0  0
    3.9108    0.4885   -0.1496 H   0  0  0  0  0  0  0  0  0  0  0  0
    2.9832    0.2396    1.3092 H   0  0  0  0  0  0  0  0  0  0  0  0
    1.9335    1.5273   -1.2662 H   0  0  0  0  0  0  0  0  0  0  0  0
    2.2854    2.3753    0.2188 H   0  0  0  0  0  0  0  0  0  0  0  0
   -0.1746    1.9311    0.0116 H   0  0  0  0  0  0  0  0  0  0  0  0
    0.4785    1.1012    1.3996 H   0  0  0  0  0  0  0  0  0  0  0  0
  1  2  1  0  0  0  0
  2  3  1  0  0  0  0
  3  4  1  0  0  0  0
  4  5  1  0  0  0  0
  5  6  1  0  0  0  0
  6  7  1  0  0  0  0
  7  8  1  0  0  0  0
  4  9  1  0  0  0  0
  8  9  1  0  0  0  0
  1 10  1  0  0  0  0
  1 11  1  0  0  0  0
  1 12  1  0  0  0  0
  2 13  1  0  0  0  0
  2 14  1  0  0  0  0
  3 15  1  0  0  0  0
  3 16  1  0  0  0  0
  4 17  1  0  0  0  0
  5 18  1  0  0  0  0
  5 19  1  0  0  0  0
  6 20  1  0  0  0  0
  6 21  1  0  0  0  0
  7 22  1  0  0  0  0
  7 23  1  0  0  0  0
  8 24  1  0  0  0  0
  8 25  1  0  0  0  0
  9 26  1  0  0  0  0
  9 27  1  0  0  0  0
M  CHG  1   1   1
M  END
