22
0.433
N            0.29978  -1.96132  -0.00305
C            1.10188  -0.69580   0.00171
C            0.82755   0.13565  -1.26469
C            1.63887   1.44249  -1.26417
C            1.35172   2.27029   0.00075
C            1.61923   1.44532   1.27187
C            0.80768   0.13831   1.26242
Cl          -3.01846  -0.95245  -0.00162
H            0.49830  -2.53320  -0.83866
H           -0.70808  -1.73560  -0.00763
H            0.48998  -2.53451   0.83462
H            2.17105  -0.96168   0.01030
H           -0.24339   0.36545  -1.30720
H            1.03444  -0.46171  -2.16153
H            1.43268   2.02946  -2.17037
H            2.70944   1.20520  -1.30791
H            0.30319   2.59461  -0.00774
H            1.94405   3.19623   0.00433
H            1.39893   2.03424   2.17357
H            2.68894   1.20802   1.33273
H           -0.26335   0.36838   1.28737
H            1.00019  -0.45731   2.16365
