 xtb: 6.5.1 (fef0646)
          01242314573D

 27 27  0     0  0            999 V2000
    0.9469    2.1194    0.1614 N   0  0  0  0  0  0  0  0  0  0  0  0
    2.4282    2.1181    0.2525 C   0  0  0  0  0  0  0  0  0  0  0  0
    3.0109    1.0741   -0.6934 C   0  0  0  0  0  0  0  0  0  0  0  0
    4.5446    1.0795   -0.7190 C   0  0  0  0  0  0  0  0  0  0  0  0
    5.0399    0.1688   -1.8471 C   0  0  0  0  0  0  0  0  0  0  0  0
    6.5640    0.1426   -1.9113 C   0  0  0  0  0  0  0  0  0  0  0  0
    7.1457   -0.3245   -0.5807 C   0  0  0  0  0  0  0  0  0  0  0  0
    6.6684    0.5861    0.5458 C   0  0  0  0  0  0  0  0  0  0  0  0
    5.1433    0.6132    0.6108 C   0  0  0  0  0  0  0  0  0  0  0  0
    0.5425    2.8121    0.8015 H   0  0  0  0  0  0  0  0  0  0  0  0
    0.5792    1.1918    0.4041 H   0  0  0  0  0  0  0  0  0  0  0  0
    0.6518    2.3410   -0.7968 H   0  0  0  0  0  0  0  0  0  0  0  0
    2.7160    1.8995    1.2793 H   0  0  0  0  0  0  0  0  0  0  0  0
    2.8048    3.1059   -0.0122 H   0  0  0  0  0  0  0  0  0  0  0  0
    2.6620    1.2680   -1.7091 H   0  0  0  0  0  0  0  0  0  0  0  0
    2.6800    0.0758   -0.4041 H   0  0  0  0  0  0  0  0  0  0  0  0
    4.8991    2.0957   -0.9213 H   0  0  0  0  0  0  0  0  0  0  0  0
    4.6460    0.5125   -2.8058 H   0  0  0  0  0  0  0  0  0  0  0  0
    4.6762   -0.8476   -1.6794 H   0  0  0  0  0  0  0  0  0  0  0  0
    6.9402    1.1434   -2.1370 H   0  0  0  0  0  0  0  0  0  0  0  0
    6.8904   -0.5220   -2.7142 H   0  0  0  0  0  0  0  0  0  0  0  0
    8.2370   -0.3232   -0.6276 H   0  0  0  0  0  0  0  0  0  0  0  0
    6.8246   -1.3502   -0.3830 H   0  0  0  0  0  0  0  0  0  0  0  0
    7.0461    1.5968    0.3727 H   0  0  0  0  0  0  0  0  0  0  0  0
    7.0741    0.2398    1.4988 H   0  0  0  0  0  0  0  0  0  0  0  0
    4.8458    1.2784    1.4215 H   0  0  0  0  0  0  0  0  0  0  0  0
    4.7822   -0.3920    0.8390 H   0  0  0  0  0  0  0  0  0  0  0  0
  1  2  1  0  0  0  0
  2  3  1  0  0  0  0
  3  4  1  0  0  0  0
  4  5  1  0  0  0  0
  5  6  1  0  0  0  0
  6  7  1  0  0  0  0
  7  8  1  0  0  0  0
  4  9  1  0  0  0  0
  8  9  1  0  0  0  0
  1 10  1  0  0  0  0
  1 11  1  0  0  0  0
  1 12  1  0  0  0  0
  2 13  1  0  0  0  0
  2 14  1  0  0  0  0
  3 15  1  0  0  0  0
  3 16  1  0  0  0  0
  4 17  1  0  0  0  0
  5 18  1  0  0  0  0
  5 19  1  0  0  0  0
  6 20  1  0  0  0  0
  6 21  1  0  0  0  0
  7 22  1  0  0  0  0
  7 23  1  0  0  0  0
  8 24  1  0  0  0  0
  8 25  1  0  0  0  0
  9 26  1  0  0  0  0
  9 27  1  0  0  0  0
M  CHG  1   1   1
M  END
