48

N          1.87730        1.41686       -0.51114
C          2.83710        0.29820       -0.58481
C          4.22571        0.65778       -0.03419
C          5.16227       -0.51939       -0.13243
C          4.90430       -1.78293       -0.62679
C          6.03791       -2.62963       -0.59926
C          7.14912       -1.99964       -0.09139
C          8.46439       -2.55506        0.02165
C          9.38955       -2.32328        1.00734
C         10.64352       -2.96862        0.78192
C         11.80707       -2.77843        1.70226
C         10.61445       -3.73017       -0.37363
C         11.66493       -4.54360       -0.94683
C         11.94050       -4.82475       -2.26510
C         11.24213       -4.23484       -3.37507
N         10.69240       -3.75492       -4.26342
C         12.99389       -5.76201       -2.43681
C         13.38227       -6.28224       -3.71836
N         13.68779       -6.70068       -4.73757
C         13.59898       -6.10796       -1.23778
C         14.74767       -6.94979       -0.98958
C         15.01073       -7.77556        0.09772
C         14.12287       -8.03557        1.27516
C         16.31010       -8.38299       -0.02249
C         16.96489       -8.04066       -1.17430
S         16.05169       -6.97272       -2.11869
S         12.80944       -5.31659        0.05223
S          9.06836       -3.66271       -1.12079
S          6.78545       -0.39450        0.40163
Cl        -1.27493       -0.17314       -0.08439
H          0.94061        1.08578       -0.84230
H          2.14134        2.23346       -1.06935
H          1.67682        1.70942        0.45249
H          2.90646        0.01356       -1.64099
H          2.40027       -0.53084       -0.01990
H          4.14573        0.97334        1.01331
H          4.64583        1.50206       -0.59792
H          3.95106       -2.11021       -1.01802
H          6.03360       -3.65400       -0.95488
H          9.18854       -1.68628        1.86439
H         11.56238       -2.08806        2.51296
H         12.66015       -2.36945        1.15042
H         12.09260       -3.72445        2.17078
H         13.13137       -7.59747        1.17884
H         14.58057       -7.62955        2.18246
H         13.95275       -9.10717        1.39837
H         16.73962       -9.04470        0.72309
H         17.94238       -8.35742       -1.50727
