 xtb: 6.5.1 (fef0646)
          01242315343D

 48 50  0     0  0            999 V2000
    1.7322    1.0173    0.2751 N   0  0  0  0  0  0  0  0  0  0  0  0
    2.8094    0.2591   -0.3857 C   0  0  0  0  0  0  0  0  0  0  0  0
    4.1625    0.5751    0.2530 C   0  0  0  0  0  0  0  0  0  0  0  0
    5.2464   -0.3049   -0.2737 C   0  0  0  0  0  0  0  0  0  0  0  0
    5.4243   -0.7948   -1.5360 C   0  0  0  0  0  0  0  0  0  0  0  0
    6.5705   -1.5951   -1.6663 C   0  0  0  0  0  0  0  0  0  0  0  0
    7.2817   -1.7216   -0.4978 C   0  0  0  0  0  0  0  0  0  0  0  0
    8.4766   -2.4549   -0.2641 C   0  0  0  0  0  0  0  0  0  0  0  0
    9.1901   -2.5722    0.9055 C   0  0  0  0  0  0  0  0  0  0  0  0
   10.3273   -3.3831    0.8081 C   0  0  0  0  0  0  0  0  0  0  0  0
   11.2338   -3.6396    1.9594 C   0  0  0  0  0  0  0  0  0  0  0  0
   10.4927   -3.9014   -0.4718 C   0  0  0  0  0  0  0  0  0  0  0  0
   11.5069   -4.7610   -0.9603 C   0  0  0  0  0  0  0  0  0  0  0  0
   11.6825   -5.2400   -2.2534 C   0  0  0  0  0  0  0  0  0  0  0  0
   10.8813   -4.9380   -3.3576 C   0  0  0  0  0  0  0  0  0  0  0  0
   10.2595   -4.7176   -4.3014 N   0  0  0  0  0  0  0  0  0  0  0  0
   12.8122   -6.1075   -2.3894 C   0  0  0  0  0  0  0  0  0  0  0  0
   13.1183   -6.6767   -3.6299 C   0  0  0  0  0  0  0  0  0  0  0  0
   13.3167   -7.1147   -4.6756 N   0  0  0  0  0  0  0  0  0  0  0  0
   13.5086   -6.2976   -1.2049 C   0  0  0  0  0  0  0  0  0  0  0  0
   14.6677   -7.0884   -0.9764 C   0  0  0  0  0  0  0  0  0  0  0  0
   15.3511   -7.3046    0.2098 C   0  0  0  0  0  0  0  0  0  0  0  0
   14.9933   -6.7269    1.5334 C   0  0  0  0  0  0  0  0  0  0  0  0
   16.4586   -8.1598    0.0263 C   0  0  0  0  0  0  0  0  0  0  0  0
   16.6152   -8.5797   -1.2556 C   0  0  0  0  0  0  0  0  0  0  0  0
   15.4123   -7.9510   -2.3075 S   0  0  0  0  0  0  0  0  0  0  0  0
   12.7551   -5.3924    0.0739 S   0  0  0  0  0  0  0  0  0  0  0  0
    9.2170   -3.3671   -1.5492 S   0  0  0  0  0  0  0  0  0  0  0  0
    6.5141   -0.8338    0.7837 S   0  0  0  0  0  0  0  0  0  0  0  0
   -0.8125    0.4805   -1.2947 Cl  0  0  0  0  0  0  0  0  0  0  0  0
    0.8203    0.8368   -0.2211 H   0  0  0  0  0  0  0  0  0  0  0  0
    1.9089    2.0238    0.2290 H   0  0  0  0  0  0  0  0  0  0  0  0
    1.6216    0.7335    1.2516 H   0  0  0  0  0  0  0  0  0  0  0  0
    2.8097    0.5187   -1.4431 H   0  0  0  0  0  0  0  0  0  0  0  0
    2.5904   -0.8049   -0.3030 H   0  0  0  0  0  0  0  0  0  0  0  0
    4.1107    0.4369    1.3337 H   0  0  0  0  0  0  0  0  0  0  0  0
    4.4299    1.6171    0.0584 H   0  0  0  0  0  0  0  0  0  0  0  0
    4.7581   -0.5968   -2.3550 H   0  0  0  0  0  0  0  0  0  0  0  0
    6.8784   -2.0708   -2.5816 H   0  0  0  0  0  0  0  0  0  0  0  0
    8.8900   -2.0800    1.8135 H   0  0  0  0  0  0  0  0  0  0  0  0
   10.8880   -3.0881    2.8278 H   0  0  0  0  0  0  0  0  0  0  0  0
   12.2512   -3.3301    1.7253 H   0  0  0  0  0  0  0  0  0  0  0  0
   11.2552   -4.7012    2.2015 H   0  0  0  0  0  0  0  0  0  0  0  0
   13.9823   -7.0135    1.8195 H   0  0  0  0  0  0  0  0  0  0  0  0
   15.0364   -5.6390    1.5034 H   0  0  0  0  0  0  0  0  0  0  0  0
   15.6867   -7.0847    2.2883 H   0  0  0  0  0  0  0  0  0  0  0  0
   17.1141   -8.4498    0.8266 H   0  0  0  0  0  0  0  0  0  0  0  0
   17.3669   -9.2270   -1.6601 H   0  0  0  0  0  0  0  0  0  0  0  0
  1  2  1  0  0  0  0
  2  3  1  0  0  0  0
  3  4  1  0  0  0  0
  4  5  2  0  0  0  0
  5  6  4  0  0  0  0
  6  7  4  0  0  0  0
  7  8  1  0  0  0  0
  8  9  4  0  0  0  0
  9 10  4  0  0  0  0
 10 11  1  0  0  0  0
 10 12  4  0  0  0  0
 12 13  4  0  0  0  0
 13 14  4  0  0  0  0
 14 15  1  0  0  0  0
 15 16  3  0  0  0  0
 14 17  1  0  0  0  0
 17 18  1  0  0  0  0
 18 19  3  0  0  0  0
 17 20  4  0  0  0  0
 20 21  1  0  0  0  0
 21 22  4  0  0  0  0
 22 23  1  0  0  0  0
 22 24  4  0  0  0  0
 24 25  2  0  0  0  0
 21 26  1  0  0  0  0
 25 26  1  0  0  0  0
 13 27  1  0  0  0  0
 20 27  1  0  0  0  0
  8 28  1  0  0  0  0
 12 28  1  0  0  0  0
  4 29  1  0  0  0  0
  7 29  1  0  0  0  0
  1 31  1  0  0  0  0
  1 32  1  0  0  0  0
  1 33  1  0  0  0  0
  2 34  1  0  0  0  0
  2 35  1  0  0  0  0
  3 36  1  0  0  0  0
  3 37  1  0  0  0  0
  5 38  1  0  0  0  0
  6 39  1  0  0  0  0
  9 40  1  0  0  0  0
 11 41  1  0  0  0  0
 11 42  1  0  0  0  0
 11 43  1  0  0  0  0
 23 44  1  0  0  0  0
 23 45  1  0  0  0  0
 23 46  1  0  0  0  0
 24 47  1  0  0  0  0
 25 48  1  0  0  0  0
M  END
