 xtb: 6.5.1 (fef0646)
          01242310033D

 21 21  0     0  0            999 V2000
   -2.4294   -0.0001    0.1008 N   0  0  0  0  0  0  0  0  0  0  0  0
   -0.9873    0.0000   -0.3075 C   0  0  0  0  0  0  0  0  0  0  0  0
   -0.2612    1.2658    0.1882 C   0  0  0  0  0  0  0  0  0  0  0  0
    1.2207    1.2716   -0.2307 C   0  0  0  0  0  0  0  0  0  0  0  0
    1.9450    0.0001    0.2482 C   0  0  0  0  0  0  0  0  0  0  0  0
    1.2208   -1.2716   -0.2307 C   0  0  0  0  0  0  0  0  0  0  0  0
   -0.2611   -1.2658    0.1882 C   0  0  0  0  0  0  0  0  0  0  0  0
   -2.5190    0.0006    1.1259 H   0  0  0  0  0  0  0  0  0  0  0  0
   -2.9217   -0.8318   -0.2543 H   0  0  0  0  0  0  0  0  0  0  0  0
   -2.9222    0.8308   -0.2558 H   0  0  0  0  0  0  0  0  0  0  0  0
   -0.9513   -0.0000   -1.4100 H   0  0  0  0  0  0  0  0  0  0  0  0
   -0.3370    1.3110    1.2797 H   0  0  0  0  0  0  0  0  0  0  0  0
   -0.7765    2.1626   -0.1780 H   0  0  0  0  0  0  0  0  0  0  0  0
    1.7249    2.1697    0.1517 H   0  0  0  0  0  0  0  0  0  0  0  0
    1.2914    1.3426   -1.3227 H   0  0  0  0  0  0  0  0  0  0  0  0
    1.9975    0.0001    1.3435 H   0  0  0  0  0  0  0  0  0  0  0  0
    2.9895    0.0001   -0.0927 H   0  0  0  0  0  0  0  0  0  0  0  0
    1.7251   -2.1694    0.1519 H   0  0  0  0  0  0  0  0  0  0  0  0
    1.2916   -1.3429   -1.3226 H   0  0  0  0  0  0  0  0  0  0  0  0
   -0.3369   -1.3111    1.2797 H   0  0  0  0  0  0  0  0  0  0  0  0
   -0.7764   -2.1626   -0.1780 H   0  0  0  0  0  0  0  0  0  0  0  0
  1  2  1  0  0  0  0
  2  3  1  0  0  0  0
  3  4  1  0  0  0  0
  4  5  1  0  0  0  0
  5  6  1  0  0  0  0
  2  7  1  0  0  0  0
  6  7  1  0  0  0  0
  1  8  1  0  0  0  0
  1  9  1  0  0  0  0
  1 10  1  0  0  0  0
  2 11  1  0  0  0  0
  3 12  1  0  0  0  0
  3 13  1  0  0  0  0
  4 14  1  0  0  0  0
  4 15  1  0  0  0  0
  5 16  1  0  0  0  0
  5 17  1  0  0  0  0
  6 18  1  0  0  0  0
  6 19  1  0  0  0  0
  7 20  1  0  0  0  0
  7 21  1  0  0  0  0
M  CHG  1   1   1
M  END
