28
0.053
N           -3.08024   1.71186   0.11605
C           -2.02930   1.74300  -0.94173
C           -0.65006   1.29656  -0.43931
C            0.44884   1.55148  -1.49778
C            1.83566   1.13349  -0.98493
C            1.85457  -0.34540  -0.54758
C            3.21790  -0.72784  -0.01026
O            3.58227  -0.14721   1.15651
O            3.91574  -1.50647  -0.62522
C            0.75384  -0.61554   0.49660
C           -0.63176  -0.18977  -0.01534
Cl          -3.68607  -1.60725   1.20780
H           -3.97760   2.07885  -0.22789
H           -2.79876   2.27689   0.93066
H           -3.24796   0.75036   0.44822
H           -1.95592   2.75769  -1.34838
H           -2.32918   1.10905  -1.78262
H           -0.40245   1.89674   0.44944
H            0.44427   2.60434  -1.80443
H            0.20498   0.98299  -2.40139
H            2.11857   1.75256  -0.12691
H            2.60954   1.31112  -1.74154
H            1.65997  -0.97218  -1.42954
H            4.46634  -0.46235   1.39640
H            0.99985  -0.06296   1.40959
H            0.76198  -1.67343   0.78567
H           -1.39779  -0.38000   0.74446
H           -0.91241  -0.80571  -0.87599
