28
 xtb: 6.5.1 (fef0646)
N           -3.26618369693561        1.01425764592995        0.79177483758983
C           -2.05167072429989        1.84101584675690        0.51797460075527
C           -0.80974591121368        0.98966414528029        0.22256734497717
C           -0.36275948083230        0.15414562490565        1.44282817645158
C            0.86025451987992       -0.71590865907505        1.11018444814039
C            2.03666337882451        0.13200421530508        0.58390285188474
C            3.21171462649427       -0.75070387869780        0.21821988593588
O            3.01235948394941       -1.61693488587826       -0.79971019046386
O            4.25631314190745       -0.65595719983858        0.83250279646690
C            1.59528977383131        0.98564467146681       -0.62100873807952
C            0.37184280393298        1.85180289331658       -0.28128104190778
Cl          -3.49886734071195       -1.15048757680564       -1.54870222819301
H           -3.15059295831481        0.55409462228550        1.74074998695267
H           -3.42087264417360        0.37936308794467        0.10958201280294
H           -4.09357757076192        1.66142700678993        0.94009574186710
H           -1.80887132432441        2.54700822202176        1.38944219791635
H           -2.24051357682322        2.53195953415134       -0.30202813203925
H           -1.08637460620660        0.30626613198904       -0.55376938508506
H           -1.18342941090218       -0.43711900797564        1.83606237613663
H           -0.09904626874603        0.85502701936738        2.28136100496648
H            0.58185964648015       -1.44124228102984        0.35881062693850
H            1.18163018688760       -1.29039149026149        1.98940415304243
H            2.37551058729178        0.81024640332222        1.37958465047919
H            3.79562825777685       -2.14118282717752       -0.94578821204083
H            1.33809151835843        0.31138147635538       -1.44884896715350
H            2.42705763479010        1.59233251947790       -0.98583864480114
H            0.06254241267734        2.46065179093491       -1.13900978052622
H            0.65395637049546        2.58583109308097        0.49724862089717
