 xtb: 6.5.1 (fef0646)
          01242310103D

 18 16  0     0  0            999 V2000
    0.0846   -0.5878   -0.5469 N   0  0  0  0  0  0  0  0  0  0  0  0
   -0.6869   -0.4406    0.7173 C   0  0  0  0  0  0  0  0  0  0  0  0
   -2.1633   -0.7879    0.5495 C   0  0  0  0  0  0  0  0  0  0  0  0
   -2.8984    0.0940   -0.4631 C   0  0  0  0  0  0  0  0  0  0  0  0
   -2.9186    1.5657   -0.0795 C   0  0  0  0  0  0  0  0  0  0  0  0
    3.4726    0.0682   -0.0231 Cl  0  0  0  0  0  0  0  0  0  0  0  0
   -0.2497    0.0667   -1.2711 H   0  0  0  0  0  0  0  0  0  0  0  0
   -0.0097   -1.5422   -0.9287 H   0  0  0  0  0  0  0  0  0  0  0  0
    1.0982   -0.4033   -0.4080 H   0  0  0  0  0  0  0  0  0  0  0  0
   -0.5810    0.5837    1.0931 H   0  0  0  0  0  0  0  0  0  0  0  0
   -0.2363   -1.0774    1.4899 H   0  0  0  0  0  0  0  0  0  0  0  0
   -2.6725   -0.7209    1.5199 H   0  0  0  0  0  0  0  0  0  0  0  0
   -2.2475   -1.8413    0.2513 H   0  0  0  0  0  0  0  0  0  0  0  0
   -3.9297   -0.2674   -0.5835 H   0  0  0  0  0  0  0  0  0  0  0  0
   -2.4437   -0.0279   -1.4548 H   0  0  0  0  0  0  0  0  0  0  0  0
   -3.4949    2.1663   -0.7884 H   0  0  0  0  0  0  0  0  0  0  0  0
   -1.9115    1.9864   -0.0459 H   0  0  0  0  0  0  0  0  0  0  0  0
   -3.3620    1.7102    0.9082 H   0  0  0  0  0  0  0  0  0  0  0  0
  1  2  1  0  0  0  0
  2  3  1  0  0  0  0
  3  4  1  0  0  0  0
  4  5  1  0  0  0  0
  1  7  1  0  0  0  0
  1  8  1  0  0  0  0
  1  9  1  0  0  0  0
  2 10  1  0  0  0  0
  2 11  1  0  0  0  0
  3 12  1  0  0  0  0
  3 13  1  0  0  0  0
  4 14  1  0  0  0  0
  4 15  1  0  0  0  0
  5 16  1  0  0  0  0
  5 17  1  0  0  0  0
  5 18  1  0  0  0  0
M  END
