25
 xtb: 6.5.1 (fef0646)
N           -4.59098503173760       -0.01248869067383       -0.53532615689358
C           -3.11587562234751       -0.17804908078981       -0.69393482493331
C           -2.32838330942702        0.35515239242124        0.51106010835847
C           -0.84593442064832        0.15384850447157        0.37735465807152
C           -0.00928521142953        1.20675592909869        0.02932985662611
C            1.34895264614658        1.02095232887131       -0.10844994194104
C            1.91958278387816       -0.23768849244454        0.08677570995745
O            3.27553044232659       -0.53349701732087       -0.03036278793406
C            4.11917588315730        0.55512102036040       -0.34492695104131
C            1.07198375295336       -1.29473970410072        0.42611632037668
C           -0.28260978230751       -1.10163337105864        0.56887247003218
H           -4.83060138013841        1.02331349985661       -0.37108077329015
H           -4.94052718922745       -0.52623302140923        0.22163947484809
H           -5.09142296140198       -0.24825666739839       -1.41240928818578
H           -2.76385353333495        0.46121423677108       -1.57919037722405
H           -2.87990019940849       -1.16793952113784       -0.95828365005101
H           -2.68849751333260       -0.27287327432431        1.39621418961897
H           -2.55233382478743        1.34425565111705        0.76646816586919
H           -0.47369949477990        2.13857514312983       -0.17044363845821
H            1.93717331286919        1.84364338126323       -0.42420003415794
H            3.81027582773090        0.95242830522036       -1.36212308903194
H            5.13108189364158        0.20467336399472       -0.43096935468316
H            4.03872766095251        1.35234115341677        0.38321021080026
H            1.55198082560214       -2.25539867755935        0.64798511095073
H           -0.88175982350698       -1.95441360509723        0.90912603178520
