25
 xtb: 6.5.1 (fef0646)
N           -3.24292688650286        0.19541187284356        1.42350820189949
C           -3.28696918992477       -0.51154030249385        0.11132409782476
C           -2.44189400240067        0.17967031820111       -0.95799094734607
C           -0.97878035789869        0.18154850262280       -0.62354532861204
C           -0.32897615029741        1.34824779337354       -0.24853645500617
C            1.00896806493373        1.33637152312178        0.06816911498558
C            1.75078337384770        0.15579113767527        0.02786278468086
O            3.09902802784717        0.24383212116264        0.36698907012277
C            3.81900485672204       -0.96432732999322        0.31900093542615
C            1.09106335736686       -1.01603619985734       -0.34665837290903
C           -0.24626927008437       -0.99662387822218       -0.66598219633120
H           -3.66018556258462        1.17042576256160        1.32672487618400
H           -2.27131245139724        0.34425572635349        1.73027541863531
H           -3.76139962508322       -0.26982736374653        2.15639959847686
H           -4.33851853513584       -0.57602853508743       -0.20898669638642
H           -2.95620002351455       -1.53032625675626        0.27945290531348
H           -2.77904059579043        1.18435433000706       -1.12370409896431
H           -2.57761540862086       -0.35184956115732       -1.92161436955162
H           -0.89903040472094        2.24930260952588       -0.18100568464308
H            1.49394535626040        2.23117250902735        0.39694202497601
H            3.81764140656330       -1.32456610258603       -0.72223626631905
H            3.41156469869978       -1.68072340426856        0.99756282192742
H            4.85866339190988       -0.72690675066452        0.59119501996725
H            1.65106650604975       -1.93972810678935       -0.42275039226800
H           -0.71767632636644       -1.91667947323090       -0.99485702092915
