25
 xtb: 6.5.1 (fef0646)
N           -3.20678652072064        0.18552221480718        1.43277604369048
C           -3.34200519855971       -0.46950430015010        0.09296370113838
C           -2.43765321684937        0.15996013082003       -0.96690700477740
C           -0.97936529248170        0.15730425042065       -0.61477353451064
C           -0.33917862983940        1.33001466276727       -0.24176571423184
C            0.99742786154560        1.33156151314477        0.07624371810731
C            1.74962281267293        0.15745115485787        0.03485926615434
O            3.09729719512072        0.25931430398473        0.37339815247420
C            3.83719447939614       -0.93600509124467        0.29348546430267
C            1.10065625328498       -1.01969388426709       -0.33978535758952
C           -0.23812716494656       -1.01437363095364       -0.65637619964867
H           -3.45176579760319        1.23429580848632        1.29806421296283
H           -2.28773678000190        0.15612150959991        1.82595617702354
H           -3.90575167493883       -0.16431928637909        2.10345104577710
H           -4.35647974855343       -0.52097717619550       -0.21653860396340
H           -3.01172951771316       -1.53235382610352        0.26528595946548
H           -2.77119401571587        1.17916396604628       -1.13788097708918
H           -2.57453897042547       -0.36476028413760       -1.92055629492989
H           -0.90446691963165        2.24251402790927       -0.17884565856217
H            1.48809767264610        2.23122729743176        0.39901129147585
H            3.82290167110065       -1.30950444191512       -0.73209532997160
H            3.42222543682135       -1.67915065146406        0.98615130672466
H            4.86330393638731       -0.71532850969357        0.58344000894801
H            1.65668511246437       -1.93908692348516       -0.42114922908356
H           -0.71306205165380       -1.92321616129415       -0.99130512902032
