 xtb: 6.5.1 (fef0646)
          01242317073D

 25 25  0     0  0            999 V2000
   -3.2481    0.2465    1.4187 N   0  0  0  0  0  0  0  0  0  0  0  0
   -3.2988   -0.4959    0.1247 C   0  0  0  0  0  0  0  0  0  0  0  0
   -2.4386    0.1476   -0.9620 C   0  0  0  0  0  0  0  0  0  0  0  0
   -0.9766    0.1580   -0.6261 C   0  0  0  0  0  0  0  0  0  0  0  0
   -0.3437    1.3235   -0.2215 C   0  0  0  0  0  0  0  0  0  0  0  0
    0.9923    1.3221    0.1016 C   0  0  0  0  0  0  0  0  0  0  0  0
    1.7498    0.1532    0.0343 C   0  0  0  0  0  0  0  0  0  0  0  0
    3.0955    0.2506    0.3813 O   0  0  0  0  0  0  0  0  0  0  0  0
    3.8342   -0.9444    0.2956 C   0  0  0  0  0  0  0  0  0  0  0  0
    1.1077   -1.0168   -0.3723 C   0  0  0  0  0  0  0  0  0  0  0  0
   -0.2293   -1.0086   -0.6940 C   0  0  0  0  0  0  0  0  0  0  0  0
   -3.5878    1.2071    1.2995 H   0  0  0  0  0  0  0  0  0  0  0  0
   -2.2856    0.2936    1.7715 H   0  0  0  0  0  0  0  0  0  0  0  0
   -3.8253   -0.2074    2.1357 H   0  0  0  0  0  0  0  0  0  0  0  0
   -4.3417   -0.5643   -0.2073 H   0  0  0  0  0  0  0  0  0  0  0  0
   -2.9694   -1.5276    0.2915 H   0  0  0  0  0  0  0  0  0  0  0  0
   -2.7767    1.1738   -1.1359 H   0  0  0  0  0  0  0  0  0  0  0  0
   -2.5769   -0.3707   -1.9174 H   0  0  0  0  0  0  0  0  0  0  0  0
   -0.9069    2.2397   -0.1676 H   0  0  0  0  0  0  0  0  0  0  0  0
    1.4852    2.2268    0.4135 H   0  0  0  0  0  0  0  0  0  0  0  0
    3.8258   -1.3084   -0.7328 H   0  0  0  0  0  0  0  0  0  0  0  0
    3.4180   -1.6837    0.9825 H   0  0  0  0  0  0  0  0  0  0  0  0
    4.8615   -0.7195    0.5888 H   0  0  0  0  0  0  0  0  0  0  0  0
    1.6598   -1.9371   -0.4368 H   0  0  0  0  0  0  0  0  0  0  0  0
   -0.7092   -1.9198   -1.0092 H   0  0  0  0  0  0  0  0  0  0  0  0
  1  2  1  0  0  0  0
  2  3  1  0  0  0  0
  3  4  1  0  0  0  0
  4  5  4  0  0  0  0
  5  6  4  0  0  0  0
  6  7  4  0  0  0  0
  7  8  1  0  0  0  0
  8  9  1  0  0  0  0
  7 10  4  0  0  0  0
  4 11  4  0  0  0  0
 10 11  4  0  0  0  0
  1 12  1  0  0  0  0
  1 13  1  0  0  0  0
  1 14  1  0  0  0  0
  2 15  1  0  0  0  0
  2 16  1  0  0  0  0
  3 17  1  0  0  0  0
  3 18  1  0  0  0  0
  5 19  1  0  0  0  0
  6 20  1  0  0  0  0
  9 21  1  0  0  0  0
  9 22  1  0  0  0  0
  9 23  1  0  0  0  0
 10 24  1  0  0  0  0
 11 25  1  0  0  0  0
M  CHG  1   1   1
M  END
