  17

 N          0.9358257162       -0.0641972976       -0.0428363020
 C          2.4346681311       -0.0817843656       -0.0386860707
 C          2.9512005692       -1.4795287175        0.2664313832
 C          4.4833818467       -1.5076688032        0.2719747611
 C          5.0055702923       -2.9058400738        0.5773076988
 H          0.5693764659        0.8738769888       -0.2473194509
 H          0.5835732559       -0.3665330461        0.8752929419
 H          0.5839114659       -0.7211287730       -0.7520942973
 H          2.7852274428        0.6257941472        0.7138385060
 H          2.7855772477        0.2479912475       -1.0174406725
 H          2.5910504653       -2.1845328986       -0.4853887746
 H          2.5917151068       -1.8067835614        1.2439998579
 H          4.8559803967       -0.8088845026        1.0219723854
 H          4.8552911917       -1.1855083269       -0.7014330448
 H          4.6654693272       -3.2404809003        1.5539644119
 H          6.0910439961       -2.9060065299        0.5770157386
 H          4.6649470825       -3.6172845871       -0.1705790719
