 xtb: 6.5.1 (fef0646)
          01242310093D

 21 21  0     0  0            999 V2000
   -4.6507    0.2671    0.5982 N   0  0  0  0  0  0  0  0  0  0  0  0
   -3.1658    0.3124    0.7441 C   0  0  0  0  0  0  0  0  0  0  0  0
   -2.4321   -0.1696   -0.5043 C   0  0  0  0  0  0  0  0  0  0  0  0
   -0.9375   -0.1310   -0.3676 C   0  0  0  0  0  0  0  0  0  0  0  0
   -0.2206    1.0196   -0.7158 C   0  0  0  0  0  0  0  0  0  0  0  0
    1.1429    1.0700   -0.5786 C   0  0  0  0  0  0  0  0  0  0  0  0
    1.8357   -0.0455   -0.0767 C   0  0  0  0  0  0  0  0  0  0  0  0
    3.5136    0.0034    0.0922 Cl  0  0  0  0  0  0  0  0  0  0  0  0
    1.1225   -1.2023    0.2830 C   0  0  0  0  0  0  0  0  0  0  0  0
   -0.2408   -1.2342    0.1388 C   0  0  0  0  0  0  0  0  0  0  0  0
   -5.1292    0.5963    1.4503 H   0  0  0  0  0  0  0  0  0  0  0  0
   -4.9776   -0.6920    0.4102 H   0  0  0  0  0  0  0  0  0  0  0  0
   -4.9665    0.8603   -0.1836 H   0  0  0  0  0  0  0  0  0  0  0  0
   -2.8662   -0.2953    1.6064 H   0  0  0  0  0  0  0  0  0  0  0  0
   -2.8546    1.3364    0.9835 H   0  0  0  0  0  0  0  0  0  0  0  0
   -2.7335    0.4356   -1.3659 H   0  0  0  0  0  0  0  0  0  0  0  0
   -2.7480   -1.1897   -0.7468 H   0  0  0  0  0  0  0  0  0  0  0  0
   -0.7523    1.8740   -1.1020 H   0  0  0  0  0  0  0  0  0  0  0  0
    1.6983    1.9537   -0.8523 H   0  0  0  0  0  0  0  0  0  0  0  0
    1.6623   -2.0540    0.6672 H   0  0  0  0  0  0  0  0  0  0  0  0
   -0.7881   -2.1214    0.4129 H   0  0  0  0  0  0  0  0  0  0  0  0
  1  2  1  0  0  0  0
  2  3  1  0  0  0  0
  3  4  1  0  0  0  0
  4  5  4  0  0  0  0
  5  6  4  0  0  0  0
  6  7  4  0  0  0  0
  7  8  1  0  0  0  0
  7  9  4  0  0  0  0
  4 10  4  0  0  0  0
  9 10  4  0  0  0  0
  1 11  1  0  0  0  0
  1 12  1  0  0  0  0
  1 13  1  0  0  0  0
  2 14  1  0  0  0  0
  2 15  1  0  0  0  0
  3 16  1  0  0  0  0
  3 17  1  0  0  0  0
  5 18  1  0  0  0  0
  6 19  1  0  0  0  0
  9 20  1  0  0  0  0
 10 21  1  0  0  0  0
M  CHG  1   1   1
M  END
