  46

 N         -7.3080627747        0.6866167727       -1.8109026007
 C         -7.1185697451        1.9013699365       -0.9679222158
 C         -6.6207837227        1.5542111781        0.4336302659
 C         -5.3766927220        0.7406110206        0.4161638490
 C         -5.3282583440       -0.6152032570        0.4571138294
 C         -4.0139433815       -1.1459367901        0.4114129388
 C         -3.0361859473       -0.1931141782        0.3307693737
 C         -1.6171205474       -0.4355868356        0.2678544119
 C         -1.0047916662       -1.6598165072        0.2862453958
 C          0.4119830399       -1.6179421094        0.2125973552
 C          1.2410899199       -2.8542028124        0.2210767046
 C          0.9099257310       -0.3338976495        0.1346965498
 C          2.2867535984        0.0787361765        0.0474157883
 C          2.7007986327        1.3833568131       -0.0254397281
 C          4.1003421947        1.5496625775       -0.1042105881
 C          4.8052931530        0.3740457503       -0.0912562721
 C          6.2396517205        0.2023136621       -0.1606704860
 C          7.2251371899        1.1139344075        0.1492735852
 C          6.9944475308        2.4942031955        0.6594168388
 C          8.5399866244        0.5989770196       -0.0619213460
 C          8.5688890329       -0.6776489546       -0.5035367549
 S          6.9717621237       -1.2989858423       -0.6803656199
 S          3.6879934392       -0.9632123180        0.0134411824
 S         -0.4082739855        0.8111941922        0.1551366534
 S         -3.7678204771        1.3924804532        0.3131918006
 Cl        -8.6761311138       -1.8223593846        0.2617543637
 H         -7.7730519985        0.8957599204       -2.7049837680
 H         -7.8731856398       -0.0166487186       -1.3062598881
 H         -6.4019220440        0.2460929382       -2.0192089387
 H         -8.0599976041        2.4605447521       -0.9073756913
 H         -6.4052797899        2.5735792638       -1.4591022387
 H         -7.3970729530        1.0006882146        0.9735728649
 H         -6.4455302605        2.4645219290        1.0181060052
 H         -6.2164328000       -1.2263795756        0.5058763289
 H         -3.8063812616       -2.2037986632        0.4336760082
 H         -1.5501757136       -2.5869188987        0.3521640522
 H          0.6194490490       -3.7466055659        0.2938586510
 H          1.9268445096       -2.8548952625        1.0687765185
 H          1.8307977304       -2.9314217792       -0.6927736573
 H          2.0073428141        2.2094794782       -0.0256993013
 H          4.5631427089        2.5176483062       -0.2005263565
 H          6.1990900110        2.5094057099        1.4048627397
 H          6.7260858671        3.1708881589       -0.1523003428
 H          7.8930652333        2.8886877172        1.1341330350
 H          9.4275437164        1.1842053989        0.1239670475
 H          9.4548814611       -1.2445146371       -0.7173867740
          46
        -73.50972574
 N         -6.3544047461        3.7949310671       -0.0144188535
 C         -7.2119630633        2.7866144108        0.6730708865
 C         -7.2846425110        1.4576161303       -0.0826271930
 C         -6.0140512780        0.6766481411       -0.0628801745
 C         -5.9218100514       -0.6794246966       -0.0535513911
 C         -4.5892126151       -1.1719942897       -0.0513935519
 C         -3.6329607218       -0.1940622879       -0.0618789328
 C         -2.2067801565       -0.3964605081       -0.0616550248
 C         -1.5644679497       -1.6045681939       -0.0372137191
 C         -0.1480424491       -1.5257714649       -0.0372667382
 C          0.7120050540       -2.7404626353       -0.0119986305
 C          0.3188093836       -0.2279642357       -0.0610017928
 C          1.6867566678        0.2214814064       -0.0604422052
 C          2.0688700534        1.5359120550       -0.1323057434
 C          3.4656110918        1.7376149207       -0.1111990079
 C          4.2014448092        0.5857100440       -0.0209807733
 C          5.6437308247        0.5418700098        0.0195808198
 C          6.4534705689       -0.5650169451        0.1368765724
 C          5.9700316682       -1.9687609998        0.2492481608
 C          7.8427642855       -0.2350151722        0.1438119327
 C          8.0956691017        1.0880548053        0.0355118676
 S          6.6286171686        1.9840980166       -0.0796330918
 S          3.1144804787       -0.7801608934        0.0341131540
 S         -1.0282944164        0.8829739187       -0.0913314763
 S         -4.4172003858        1.3626072626       -0.0716632489
 Cl        -3.5061815923       -4.4947411498        0.0056971195
 H         -6.2568498097        4.6625865880        0.5291008048
 H         -6.7355159307        4.0345607430       -0.9414899789
 H         -5.4192442500        3.3990914240       -0.1594258627
 H         -8.2170775444        3.2041687401        0.8085538095
 H         -6.8284416940        2.6056507613        1.6840172315
 H         -7.5659232178        1.6457482907       -1.1240654073
 H         -8.0851950690        0.8336313030        0.3314521842
 H         -6.7878741258       -1.3233727732       -0.0515056278
 H         -4.3504100558       -2.2239463146       -0.0424269867
 H         -2.0905866047       -2.5451724359       -0.0187852773
 H          1.3292366167       -2.7591198343        0.8861310515
 H          1.3732507459       -2.7649876276       -0.8786257777
 H          0.1113446831       -3.6504370430       -0.0241117360
 H          1.3560765132        2.3425986959       -0.1988443121
 H          3.9220388369        2.7131740383       -0.1603190678
 H          5.3276337296       -2.0883354092        1.1218849911
 H          6.8018420701       -2.6667798885        0.3482945823
 H          5.3981286572       -2.2531996472       -0.6339908693
 H          8.6157626211       -0.9833067616        0.2288295515
 H          9.0703717614        1.5373122268        0.0216562728
