48
 xtb: 6.5.1 (fef0646)
N           -7.55360044955438       -0.04394932883495        1.91414053610991
C           -8.13794068492217        0.94752751038836        0.97170189686173
C           -7.50677818780361        0.85236742998634       -0.41528812582387
C           -6.02555278100179        0.98625897510142       -0.37160890833522
C           -5.34210190208577        2.16043949702528       -0.31950814985727
C           -3.93414268603968        1.99693822166714       -0.26353747776599
C           -3.53414351775606        0.68971123080555       -0.26894378553440
C           -2.16863860050140        0.23518991092662       -0.21281762958575
C           -1.75966240894153       -1.06710237971592       -0.17200696770975
C           -0.35160106996856       -1.24107668988628       -0.11105277082408
C            0.26265715984356       -2.59621891183883       -0.05769138240236
C            0.34558036014743       -0.04667029514425       -0.10721015898918
C            1.78004229125127        0.11361802083726       -0.05639747332933
C            2.47627954449173        1.30722968630741       -0.03646554098851
C            1.86724666166348        2.57583248771249       -0.06234550113266
N            1.32954313308206        3.60471875074405       -0.08491774690665
C            3.90622927799538        1.14531566228867        0.01636348670138
C            4.78173666030759        2.24688105093567        0.04570718619029
N            5.53297879539341        3.13181124784141        0.07123747133336
C            4.31828497430731       -0.17252599402672        0.03613023454766
C            5.68337435570632       -0.65091756251071        0.08632623044743
C            6.09321554276613       -1.96826751268350        0.08740945996431
C            5.19162421893656       -3.15234568692730        0.03811890100148
C            7.51272745723625       -2.11314046158317        0.14312450007713
C            8.18216785300172       -0.94166411208400        0.18600778635166
S            7.09229919883235        0.38448300228662        0.16486679095276
S            2.91869555241499       -1.19357800465557       -0.00669384793108
S           -0.78894572076986        1.27913582613750       -0.18279742647965
S           -4.92269198474528       -0.36045679598589       -0.36910452294087
Cl          -7.28744596739281       -2.75162023167295       -0.32065959818743
H           -7.58596894361814       -1.01491834063104        1.44926577598740
H           -8.04201396503159       -0.13343848444479        2.80151381974548
H           -6.55589192129810        0.11901969618589        2.07918067021564
H           -7.97896720898253        1.93405039738525        1.40403683291556
H           -9.21913649909303        0.79942118180465        0.91586410601688
H           -7.92561736054831        1.63352189650213       -1.06930651944912
H           -7.76133935124802       -0.09692817729475       -0.88068715657150
H           -5.82411358854018        3.12685075043925       -0.38259359181975
H           -3.23332241537704        2.82072635859215       -0.28405710136756
H           -2.45271973172204       -1.89267257522529       -0.20103850078245
H            0.91418128802059       -2.75275447315761       -0.93962726538337
H           -0.49933137613635       -3.37586431925626       -0.08980657192935
H            0.85799514830093       -2.72288839652636        0.82648885636571
H            5.75873745348398       -4.08289372711706        0.06639772928230
H            4.58711835867943       -3.14588678997203       -0.85937166401878
H            4.51611082170034       -3.15724014215692        0.90661866809589
H            7.99784684293794       -3.07834938019158        0.16061617805184
H            9.25002862301098       -0.83405356813348        0.22582756801890
