22
 xtb: 6.5.1 (fef0646)
N            1.43795245157984        1.74511496875691       -0.52862388205384
C            0.36720510257427        1.73589756441982        0.51986674580302
C           -0.36015336543869        3.07556330952638        0.54735321858347
C           -0.58918385793402        0.58304584469863        0.32261168392916
C           -1.25251336673974        0.40713827500612       -0.88309014699735
C           -2.12528464212003       -0.64838498338169       -1.06063229927166
C           -2.34838445930485       -1.54157130292011       -0.03119475588347
C           -1.69489152547410       -1.37817616513874        1.17450446017262
C           -0.82070137432723       -0.32378680010232        1.34941266103636
Cl           2.55872924813888       -1.73081005356752       -0.49747123321367
H            2.18912699004359        2.38639656630412       -0.32842750196424
H            1.06665725400958        1.89023233397222       -1.45203030316002
H            1.88649745383143        0.75516780277005       -0.55561202472550
H            0.85230123333103        1.58414971167335        1.49651048336700
H           -0.82231185925927        3.25680289803106       -0.43866988159774
H            0.35923576424359        3.89166824131418        0.69783778232510
H           -1.11089115013971        3.11331591724101        1.28964536097532
H           -1.13281814187715        1.13877042915732       -1.66405139929433
H           -2.68855450387227       -0.73540018890444       -1.98246192431919
H           -3.03677499510775       -2.36597784323714       -0.17401521813598
H           -1.82362010448164       -2.11604754664288        1.95107106804334
H           -0.26660537888111       -0.24095536178650        2.26394700489195
