22
 xtb: 6.5.1 (fef0646)
N            1.50286432461172        1.58210827637073       -0.51453234641199
C            0.40857339159907        1.67162024741684        0.50750322456956
C           -0.26937745057320        3.03702682065463        0.48945412986533
C           -0.58239708579417        0.54702463149431        0.32057610049176
C           -1.27865848940538        0.40577134885170       -0.86980162417719
C           -2.17151956208309       -0.63321334211025       -1.04619239198799
C           -2.37914968577732       -1.54611612612773       -0.03182057155716
C           -1.69323210855978       -1.41675193516814        1.15887511959614
C           -0.80123315001690       -0.37710083531637        1.33332232548738
Cl           2.46356643127686       -1.46237920201439       -0.45413675302854
H            2.21344185737669        2.33620189713330       -0.32936793534287
H            1.09253180667740        1.83770931273151       -1.45311316479432
H            1.89437757144127        0.70221485027367       -0.53678856465107
H            0.85746781749314        1.56799658557416        1.49669107968042
H           -0.78755999304677        3.24563290743056       -0.45961936112696
H            0.39280133221913        3.87423280583956        0.68105905962918
H           -1.08909464183516        3.11425028666190        1.26770878393822
H           -1.14307458375320        1.14271984042592       -1.65667540936171
H           -2.70965668252335       -0.72312806892490       -1.97470496243598
H           -3.04974517458196       -2.36395743814118       -0.17421065174022
H           -1.82001828527078       -2.13156643841068        1.94314296647950
H           -0.25328348401635       -0.26403199404192        2.25559539884021
