 xtb: 6.5.1 (fef0646)
          02032321543D

 22 21  0     0  0            999 V2000
    1.4603    1.6718   -0.5174 N   0  0  0  0  0  0  0  0  0  0  0  0
    0.3737    1.7207    0.5126 C   0  0  0  0  0  0  0  0  0  0  0  0
   -0.3304    3.0723    0.5093 C   0  0  0  0  0  0  0  0  0  0  0  0
   -0.5955    0.5781    0.3210 C   0  0  0  0  0  0  0  0  0  0  0  0
   -1.2971    0.4341   -0.8660 C   0  0  0  0  0  0  0  0  0  0  0  0
   -2.1722   -0.6192   -1.0451 C   0  0  0  0  0  0  0  0  0  0  0  0
   -2.3565   -1.5434   -0.0369 C   0  0  0  0  0  0  0  0  0  0  0  0
   -1.6646   -1.4119    1.1499 C   0  0  0  0  0  0  0  0  0  0  0  0
   -0.7899   -0.3584    1.3271 C   0  0  0  0  0  0  0  0  0  0  0  0
    2.5429   -1.6496   -0.4603 Cl  0  0  0  0  0  0  0  0  0  0  0  0
    2.1973    2.3655   -0.3299 H   0  0  0  0  0  0  0  0  0  0  0  0
    1.0778    1.8616   -1.4528 H   0  0  0  0  0  0  0  0  0  0  0  0
    1.8892    0.7307   -0.5403 H   0  0  0  0  0  0  0  0  0  0  0  0
    0.8497    1.5826    1.4971 H   0  0  0  0  0  0  0  0  0  0  0  0
   -0.8079    3.2554   -0.4526 H   0  0  0  0  0  0  0  0  0  0  0  0
    0.3709    3.8879    0.6876 H   0  0  0  0  0  0  0  0  0  0  0  0
   -1.1057    3.1185    1.2748 H   0  0  0  0  0  0  0  0  0  0  0  0
   -1.1540    1.1537   -1.6541 H   0  0  0  0  0  0  0  0  0  0  0  0
   -2.7112   -0.7196   -1.9735 H   0  0  0  0  0  0  0  0  0  0  0  0
   -3.0393   -2.3663   -0.1762 H   0  0  0  0  0  0  0  0  0  0  0  0
   -1.8064   -2.1328    1.9391 H   0  0  0  0  0  0  0  0  0  0  0  0
   -0.2487   -0.2582    2.2530 H   0  0  0  0  0  0  0  0  0  0  0  0
  1  2  1  0  0  0  0
  2  3  1  0  0  0  0
  2  4  1  0  0  0  0
  4  5  4  0  0  0  0
  5  6  4  0  0  0  0
  6  7  4  0  0  0  0
  7  8  4  0  0  0  0
  4  9  4  0  0  0  0
  8  9  4  0  0  0  0
  1 11  1  0  0  0  0
  1 12  1  0  0  0  0
  1 13  1  0  0  0  0
  2 14  1  0  0  0  0
  3 15  1  0  0  0  0
  3 16  1  0  0  0  0
  3 17  1  0  0  0  0
  5 18  1  0  0  0  0
  6 19  1  0  0  0  0
  7 20  1  0  0  0  0
  8 21  1  0  0  0  0
  9 22  1  0  0  0  0
M  END
