16
0.665
N            1.59917  -1.61441   0.37414
C            1.78328  -0.46615  -0.55801
C            0.96657   0.71398  -0.17312
C            1.45192   1.96980  -0.00927
C            0.45943   2.92218   0.36036
C           -0.77277   2.38393   0.47449
S           -0.75247   0.68985   0.13275
Cl          -1.56706  -2.60541  -0.32187
H            0.62437  -1.94512   0.32742
H            1.78747  -1.33046   1.34724
H            2.21329  -2.40744   0.14250
H            1.52450  -0.76674  -1.57960
H            2.84149  -0.18158  -0.58937
H            2.49221   2.22095  -0.14688
H            0.67464   3.96684   0.53017
H           -1.66248   2.92197   0.74242
