 xtb: 6.5.1 (fef0646)
          01242316573D

 16 15  0     0  0            999 V2000
    1.5992   -1.6144    0.3741 N   0  0  0  0  0  0  0  0  0  0  0  0
    1.7833   -0.4662   -0.5580 C   0  0  0  0  0  0  0  0  0  0  0  0
    0.9666    0.7140   -0.1731 C   0  0  0  0  0  0  0  0  0  0  0  0
    1.4519    1.9698   -0.0093 C   0  0  0  0  0  0  0  0  0  0  0  0
    0.4594    2.9222    0.3604 C   0  0  0  0  0  0  0  0  0  0  0  0
   -0.7728    2.3839    0.4745 C   0  0  0  0  0  0  0  0  0  0  0  0
   -0.7525    0.6899    0.1328 S   0  0  0  0  0  0  0  0  0  0  0  0
   -1.5671   -2.6054   -0.3219 Cl  0  0  0  0  0  0  0  0  0  0  0  0
    0.6244   -1.9451    0.3274 H   0  0  0  0  0  0  0  0  0  0  0  0
    1.7875   -1.3305    1.3472 H   0  0  0  0  0  0  0  0  0  0  0  0
    2.2133   -2.4075    0.1425 H   0  0  0  0  0  0  0  0  0  0  0  0
    1.5245   -0.7668   -1.5796 H   0  0  0  0  0  0  0  0  0  0  0  0
    2.8415   -0.1816   -0.5894 H   0  0  0  0  0  0  0  0  0  0  0  0
    2.4922    2.2209   -0.1469 H   0  0  0  0  0  0  0  0  0  0  0  0
    0.6747    3.9668    0.5302 H   0  0  0  0  0  0  0  0  0  0  0  0
   -1.6625    2.9220    0.7424 H   0  0  0  0  0  0  0  0  0  0  0  0
  1  2  1  0  0  0  0
  2  3  1  0  0  0  0
  3  4  2  0  0  0  0
  4  5  4  0  0  0  0
  5  6  2  0  0  0  0
  3  7  1  0  0  0  0
  6  7  1  0  0  0  0
  1  9  1  0  0  0  0
  1 10  1  0  0  0  0
  1 11  1  0  0  0  0
  2 12  1  0  0  0  0
  2 13  1  0  0  0  0
  4 14  1  0  0  0  0
  5 15  1  0  0  0  0
  6 16  1  0  0  0  0
M  END
