  22

 N         -3.4858783802        0.1715131283       -0.8250384858
 C         -2.7699401840        0.1483250968        0.4877552458
 C         -1.2885051148        0.0146046994        0.3315060324
 C         -0.4710818134        1.1438792907        0.2732232696
 C          0.8911438418        1.0272950632        0.1157367240
 C          1.5033521786       -0.2405517343        0.0013320640
 C          2.9141899948       -0.4097546460       -0.1515645131
 C          3.8279367604        0.5810783031       -0.1973313401
 C          0.6617116827       -1.3742541156        0.0468370619
 C         -0.6984792151       -1.2431498614        0.2063012316
 H         -4.5057984366        0.2666150370       -0.7047963929
 H         -3.3120962076       -0.6943377711       -1.3561254152
 H         -3.1635013139        0.9585731044       -1.4067979693
 H         -3.1493884622       -0.6773980421        1.1000242715
 H         -2.9995677473        1.0612183189        1.0484823095
 H         -0.9193073480        2.1196131689        0.3575197639
 H          1.4956122298        1.9158939011        0.0822988605
 H          3.2684473588       -1.4250025565       -0.2328273597
 H          3.5534271418        1.6122137580       -0.1188324057
 H          4.8739758110        0.3708207741       -0.3109604392
 H          1.0984656273       -2.3544820084       -0.0426864305
 H         -1.3218436585       -2.1207965556        0.2402234293
          22
        -27.83345411
 N         -3.4932496881       -0.1842366944       -0.8092116562
 C         -2.7750130238       -0.1455384124        0.5021137333
 C         -1.2940922717       -0.0151549003        0.3402723666
 C         -0.4790448067       -1.1463324660        0.2829382903
 C          0.8821721672       -1.0329589830        0.1148565944
 C          1.4964136385        0.2329718604       -0.0106367984
 C          2.9055228745        0.3995625002       -0.1794523637
 C          3.8166178797       -0.5932367584       -0.2345467657
 C          0.6572233542        1.3685364921        0.0376760277
 C         -0.7020674884        1.2408235729        0.2063825782
 H         -3.3188657768        0.6744484868       -1.3515859457
 H         -4.5133402848       -0.2770873122       -0.6871517087
 H         -3.1729268613       -0.9799173717       -1.3804753155
 H         -3.0045320810       -1.0518122011        1.0737110532
 H         -3.1532955163        0.6881994887        1.1042478515
 H         -0.9284667261       -2.1206902892        0.3759376468
 H          1.4845161447       -1.9230009561        0.0797707241
 H          3.2601320854        1.4143527169       -0.2675108687
 H          3.5401624208       -1.6242414396       -0.1522110537
 H          4.8616489609       -0.3854226962       -0.3614085918
 H          1.0960623445        2.3474187351       -0.0565115088
 H         -1.3237036314        2.1196635830        0.2415876718
