  42

 N         -4.3927440003       -1.2556702983        0.3567365943
 C         -3.3566020685       -1.1926868844       -0.7077543635
 C         -3.1540286958        0.2210924034       -1.2463198868
 C         -2.7729901332        1.2456009309       -0.1735090564
 C         -1.4984325547        0.9003610960        0.6018536707
 C         -0.2455400875        0.8376335106       -0.2715810550
 C          1.0191656222        0.5320680574        0.5302999435
 C          2.2753792070        0.4544206293       -0.3368608730
 C          3.5332536722        0.1283562520        0.4671051926
 C          4.7932091960        0.0557474218       -0.3950638950
 C          6.0489545342       -0.2754569298        0.4110326314
 C          7.3122076753       -0.3421808870       -0.4480137943
 C          8.5572704005       -0.6681839341        0.3615377007
 Cl        -7.2882309225        0.2594828174       -0.8249965801
 H         -4.5894393146       -2.2258317463        0.6539929523
 H         -5.2838238862       -0.8408666341        0.0247710280
 H         -4.1044468736       -0.7285997112        1.1966786379
 H         -3.6362928393       -1.8690084879       -1.5257723199
 H         -2.4101412104       -1.5881169686       -0.3202557357
 H         -4.0753425576        0.5443777768       -1.7489951934
 H         -2.3901284816        0.2132010386       -2.0342572817
 H         -3.6104929368        1.3619466067        0.5264586088
 H         -2.6520566951        2.2346973637       -0.6352466143
 H         -1.6262781029       -0.0558701705        1.1229008846
 H         -1.3379022773        1.6350098961        1.4022835276
 H         -0.1223713428        1.7854698597       -0.8102795828
 H         -0.3715191325        0.0796907139       -1.0537003890
 H          0.8895332917       -0.4114970749        1.0751384506
 H          1.1552835941        1.2925630527        1.3092971869
 H          2.4139195803        1.4021983855       -0.8719995925
 H          2.1349672668       -0.2977299285       -1.1232797601
 H          3.3949779067       -0.8217865658        0.9982341894
 H          3.6700923134        0.8772092906        1.2573543359
 H          4.9338292544        1.0071257686       -0.9230262839
 H          4.6556206381       -0.6906859246       -1.1873042772
 H          5.9093066887       -1.2287899883        0.9360682235
 H          6.1831465384        0.4685174528        1.2062582503
 H          7.4429164170        0.6123518180       -0.9754056009
 H          7.1715544606       -1.0868570272       -1.2429187168
 H          8.7326949851        0.0817714688        1.1362337364
 H          9.4541543166       -0.7120567544       -0.2617146059
 H          8.4601981201       -1.6327901744        0.8650003893
          42
        -47.41792242
 N         -4.3572531773       -1.3522459333        0.8829083649
 C         -3.3404284234       -1.3487074867       -0.2017429153
 C         -3.1664000529        0.0289640087       -0.8348260001
 C         -2.7417314777        1.1180690434        0.1547194544
 C         -1.4204410651        0.8336537893        0.8748265356
 C         -0.2231726697        0.7179781678       -0.0683211450
 C          1.0975143118        0.4991165087        0.6689697140
 C          2.2927868365        0.3754427849       -0.2756133257
 C          3.6155071566        0.1619873603        0.4586685524
 C          4.8097694323        0.0400330848       -0.4874158107
 C          6.1340445782       -0.1702503172        0.2461169396
 C          7.3294956670       -0.2903889391       -0.6997100784
 C          8.6435559879       -0.4973422544        0.0366643356
 Cl        -7.2642139847        0.0810587563       -0.3734074444
 H         -4.5394515058       -2.3028179398        1.2457927495
 H         -5.2574498753       -0.9671626936        0.5400998417
 H         -4.0598350411       -0.7686164327        1.6812662545
 H         -3.6270597888       -2.0801621196       -0.9684100133
 H         -2.3824401292       -1.7076308319        0.1929662567
 H         -4.1103058736        0.3193201478       -1.3151126442
 H         -2.4383211554       -0.0267454601       -1.6540809871
 H         -3.5404997274        1.2664994699        0.8927169513
 H         -2.6605398960        2.0795016115       -0.3699667336
 H         -1.5074238569       -0.0846167938        1.4676939581
 H         -1.2192499707        1.6235432704        1.6109308921
 H         -0.1540899044        1.6206460609       -0.6881421262
 H         -0.3827271223       -0.1033260457       -0.7769242276
 H          1.0265206764       -0.3999398511        1.2939309680
 H          1.2678954888        1.3225386957        1.3737053653
 H          2.3604337990        1.2727214714       -0.9034692808
 H          2.1235123297       -0.4502606331       -0.9781174232
 H          3.5485622480       -0.7357583046        1.0859742973
 H          3.7845376292        0.9876988271        1.1612401289
 H          4.8748947890        0.9370461022       -1.1157459423
 H          4.6413376089       -0.7866145418       -1.1888674554
 H          6.0691012722       -1.0676914750        0.8741013458
 H          6.3014899718        0.6559297970        0.9484447701
 H          7.3857604842        0.6080322998       -1.3290331956
 H          7.1547783128       -1.1167568510       -1.4017210632
 H          8.6178088179       -1.4052743732        0.6435714197
 H          8.8532521552        0.3348541826        0.7125514043
 H          9.4902817485       -0.5847314680       -0.6490965160
          42
        -47.41841341
 N         -5.5826191405       -0.9035898741        1.0526967842
 C         -5.1870814416       -1.7381629944       -0.1129559161
 C         -3.9384602892       -1.2095424362       -0.8127703038
 C         -2.6913200057       -1.2380076430        0.0710593922
 C         -1.4363266562       -0.7528536733       -0.6558730264
 C         -0.1859662657       -0.7887421927        0.2223399795
 C          1.0729347002       -0.3312607609       -0.5135195900
 C          2.3267469790       -0.3807462199        0.3593606220
 C          3.5890192342        0.0526416508       -0.3846428975
 C          4.8470225330       -0.0195938907        0.4805014948
 C          6.1133228494        0.3882829338       -0.2720406089
 C          7.3748463996        0.3017308611        0.5877490939
 C          8.6319882797        0.6962524331       -0.1710947875
 Cl        -5.6815670578        2.4009042482       -0.0229555422
 H         -6.4820194952       -1.2049379787        1.4634707388
 H         -5.6791402200        0.0905599169        0.7726267642
 H         -4.8732386929       -0.9410074362        1.8022654055
 H         -6.0233852470       -1.7863023627       -0.8222090867
 H         -5.0209083189       -2.7715932990        0.2150159052
 H         -4.1181180830       -0.1823146920       -1.1534074102
 H         -3.7456610001       -1.7859197341       -1.7270562156
 H         -2.5295132135       -2.2558770555        0.4467941282
 H         -2.8526275349       -0.6252762862        0.9661673153
 H         -1.5964564670        0.2662074268       -1.0292019677
 H         -1.2727303584       -1.3620244917       -1.5537098874
 H         -0.0371590109       -1.8047910679        0.6088436288
 H         -0.3411085524       -0.1661925468        1.1121305121
 H          0.9284607728        0.6870956751       -0.8955255060
 H          1.2221466340       -0.9510591965       -1.4064780911
 H          2.4616932020       -1.3966311322        0.7513385873
 H          2.1851830276        0.2494933880        1.2462767552
 H          3.4611019329        1.0731374095       -0.7669244466
 H          3.7212180912       -0.5706988191       -1.2779325885
 H          4.9647412021       -1.0370224645        0.8737653507
 H          4.7228046383        0.6149916900        1.3668378272
 H          5.9998928380        1.4084809848       -0.6597342447
 H          6.2312312489       -0.2420265129       -1.1623869531
 H          7.4756592359       -0.7186016818        0.9816403746
 H          7.2531615567        0.9367560594        1.4755134147
 H          8.5646508785        1.7215393778       -0.5419435868
 H          8.7891864841        0.0507549526       -1.0382497882
 H          9.5270080970        0.6309284807        0.4530097818
          42
        -47.42121432
 N         -1.0502084695        2.2463165573       -1.1327645062
 C          0.1419054406        3.1359510156       -1.1543293162
 C          1.2918468441        2.5920127466       -0.3116414735
 C          1.7569724770        1.1991550273       -0.7372563731
 C          2.9629086439        0.7117321069        0.0712061559
 C          3.3815068877       -0.7416676627       -0.2281355405
 C          2.8071495158       -1.7711113774        0.7525143513
 C          1.2837370900       -1.9160185998        0.7217279211
 C          0.7562171942       -2.5130553384       -0.5834915117
 C         -0.7602199360       -2.7272507035       -0.5848966068
 C         -1.5538692746       -1.4221080880       -0.6188685625
 C         -3.0675582013       -1.6348236655       -0.6117733895
 C         -3.8419134305       -0.3266947020       -0.6472309788
 Cl        -1.4316737140        1.0723148186        2.1159972820
 H         -1.8865770862        2.6961360797       -1.5408877836
 H         -1.2788175446        1.9648109033       -0.1611231586
 H         -0.8766711865        1.3796508330       -1.6659552533
 H         -0.1423856643        4.1344918524       -0.7982037578
 H          0.4713076491        3.2778433589       -2.1910454128
 H          0.9877939810        2.5608321491        0.7422364965
 H          2.1430484595        3.2845574128       -0.3436647628
 H          2.0042792838        1.2008838318       -1.8060594090
 H          0.9283426037        0.4899886931       -0.6418089864
 H          2.7546537033        0.8162298473        1.1432812261
 H          3.8023483270        1.3959769969       -0.1146400826
 H          4.4785297140       -0.8162985397       -0.2154566341
 H          3.0998830324       -0.9996862586       -1.2558037850
 H          3.1305363998       -1.5048944080        1.7677813375
 H          3.2564649042       -2.7545459830        0.5605860209
 H          0.8161873798       -0.9442574130        0.9139317045
 H          0.9540070336       -2.5503703192        1.5556329900
 H          1.2695485789       -3.4659036974       -0.7693342108
 H          1.0328708138       -1.8711611411       -1.4282279636
 H         -1.0493038011       -3.3101165087        0.2983105614
 H         -1.0538749311       -3.3448870155       -1.4440274419
 H         -1.2693352622       -0.8477111766       -1.5087585485
 H         -1.2731077143       -0.7913304973        0.2325554852
 H         -3.3479778476       -2.2169464344        0.2763664889
 H         -3.3500288599       -2.2657814335       -1.4651182459
 H         -4.9229805177       -0.4879190460       -0.6423303941
 H         -3.6002946519        0.2515104389       -1.5420036125
 H         -3.5997895587        0.2996536746        0.2144177841
          42
        -47.42341228
 N          0.6316657327        1.3245457437        1.3977522774
 C          1.9854397123        1.9366815099        1.4845954317
 C          2.8841770004        1.6044977361        0.2887599133
 C          3.6686086564        0.2921855202        0.4164312211
 C          2.8246291210       -0.9851364068        0.3927450815
 C          2.0405462826       -1.1778035042       -0.9067159097
 C          1.2979848070       -2.5154193279       -0.9787549866
 C          0.1614577290       -2.6576433625        0.0378306128
 C         -1.0153366539       -1.7193455257       -0.2284536673
 C         -2.1323847597       -1.8591404858        0.8060243035
 C         -3.3448545488       -0.9687444258        0.5219984330
 C         -3.0516636804        0.5266960272        0.6508667065
 C         -4.2793828130        1.3889249987        0.4037173967
 Cl        -0.5963473991        1.7511226623       -1.8241405677
 H         -0.0053579477        1.6801889023        2.1298336114
 H          0.6641824589        0.2963509701        1.4978808118
 H          0.1989528998        1.5258960315        0.4803411780
 H          2.4758079514        1.6365261551        2.4182209887
 H          1.8622708358        3.0256009393        1.5625381464
 H          3.5978372407        2.4271115909        0.1365140177
 H          2.2795764920        1.5917314788       -0.6251320716
 H          4.2636105688        0.3248648607        1.3386038295
 H          4.4070682909        0.2320623841       -0.3946773697
 H          2.1470040851       -0.9987114751        1.2520231975
 H          3.4736967454       -1.8584358956        0.5438316215
 H          2.7346982111       -1.0914818967       -1.7533645859
 H          1.3317254901       -0.3537267678       -1.0411311362
 H          2.0228019942       -3.3288918056       -0.8423148896
 H          0.8894710875       -2.6610508017       -1.9874551547
 H          0.5434677652       -2.4881275814        1.0514313991
 H         -0.2060349675       -3.6925637684        0.0467567375
 H         -1.4163356474       -1.9073490620       -1.2323214361
 H         -0.6643727496       -0.6824494694       -0.2549067614
 H         -1.7362735122       -1.6322182754        1.8036474861
 H         -2.4428726272       -2.9112598859        0.8542875236
 H         -4.1685818362       -1.2291737246        1.1999647936
 H         -3.7265335338       -1.1800747067       -0.4846891585
 H         -2.2543119420        0.8072748230       -0.0485876625
 H         -2.6395866865        0.7310204787        1.6481150471
 H         -4.0586312144        2.4554412315        0.4966776942
 H         -5.0763130013        1.1556309675        1.1134583317
 H         -4.6828278882        1.2237179272       -0.5979629005
          42
        -47.42357965
 N          0.7101872025        1.5155673426        1.1771216978
 C          2.1353068103        1.9364355471        1.2515250821
 C          3.0248157675        1.2810073816        0.1908634872
 C          3.5687636513       -0.1028722840        0.5695153753
 C          2.5319470203       -1.2285150614        0.6268667920
 C          1.8223451394       -1.4753582862       -0.7057664876
 C          0.9120182635       -2.7065490663       -0.6937432273
 C         -0.3036556420       -2.5826070958        0.2291461654
 C         -1.3129885114       -1.5303906776       -0.2296705237
 C         -2.5567099910       -1.4735928963        0.6577359751
 C         -3.6155982522       -0.4825873456        0.1663296310
 C         -3.1701173940        0.9823782676        0.1967799356
 C         -2.8971663051        1.4985544783        1.6006077965
 Cl        -0.3168429876        1.5583587190       -2.1359965388
 H          0.1067460696        2.0825764059        1.7953127830
 H          0.5820660043        0.5272787178        1.4514716577
 H          0.3497653410        1.6119442481        0.2125691026
 H          2.5349208440        1.7362948136        2.2527685321
 H          2.1736058680        3.0287780284        1.1403183433
 H          3.8742441495        1.9457456506       -0.0232769169
 H          2.4759404612        1.2214665260       -0.7557220039
 H          4.0872322895       -0.0271410358        1.5343202882
 H          4.3486681620       -0.3919178203       -0.1482781024
 H          1.8004734894       -1.0247838238        1.4149414378
 H          3.0196940799       -2.1608088457        0.9426901890
 H          2.5800244002       -1.5818091712       -1.4936548875
 H          1.2433176714       -0.5903746766       -0.9910681594
 H          1.5079881567       -3.5832023798       -0.4072650972
 H          0.5611122398       -2.9191397206       -1.7122493949
 H          0.0221340495       -2.3581613606        1.2517804093
 H         -0.8138705474       -3.5523113424        0.3037643248
 H         -1.6109039505       -1.7350280356       -1.2656402688
 H         -0.8344654345       -0.5456944246       -0.2613102085
 H         -2.2621480399       -1.2299104817        1.6853815614
 H         -2.9915784160       -2.4799558396        0.7223983378
 H         -4.5277414539       -0.5869877975        0.7688379057
 H         -3.9122562903       -0.7591356930       -0.8541359573
 H         -3.9365020098        1.6096592493       -0.2805908989
 H         -2.2782222057        1.1090018660       -0.4296064552
 H         -3.7788573124        1.3957569904        2.2371768571
 H         -2.6139161067        2.5544019186        1.6012573718
 H         -2.0878662836        0.9462408205        2.0820454781
          42
        -47.42367244
 N          0.7104807203        1.5239462608        1.1643115733
 C          2.1369327207        1.9380667710        1.2474118142
 C          3.0313763890        1.2724322361        0.1974342715
 C          3.5624550370       -0.1136584284        0.5862324517
 C          2.5183475777       -1.2329970059        0.6351191418
 C          1.8192110961       -1.4764988054       -0.7037074469
 C          0.9082626767       -2.7072743192       -0.7020086071
 C         -0.3100159057       -2.5884855490        0.2180466726
 C         -1.3164687452       -1.5315663252       -0.2359790868
 C         -2.5591739661       -1.4744466256        0.6527493194
 C         -3.6118549054       -0.4723561453        0.1706593405
 C         -3.1570744993        0.9894254945        0.2150118130
 C         -2.8809843996        1.4904101764        1.6237445872
 Cl        -0.3183066908        1.5634854806       -2.1480885666
 H          0.5771777305        0.5398596406        1.4386280614
 H          0.3551217454        1.6204145941        0.1948351553
 H          0.1054082176        2.0950170736        1.7780615436
 H          2.5277983426        1.7415048556        2.2528049884
 H          2.1815505227        3.0295614588        1.1305565545
 H          3.8871970821        1.9305831022       -0.0115522681
 H          2.4907085995        1.2130065817       -0.7538716577
 H          4.0708103215       -0.0383593248        1.5564294965
 H          4.3484582827       -0.4094899093       -0.1220870350
 H          1.7810184574       -1.0244589990        1.4165027450
 H          2.9977493170       -2.1679351454        0.9558611749
 H          2.5829911542       -1.5815413460       -1.4858701051
 H          1.2430884557       -0.5904141126       -0.9915839505
 H          1.5028898629       -3.5859729338       -0.4190110533
 H          0.5604408947       -2.9134273710       -1.7228883271
 H          0.0132706355       -2.3715437633        1.2430962158
 H         -0.8216853306       -3.5580060610        0.2846152538
 H         -1.6156811919       -1.7308665463       -1.2726183875
 H         -0.8347951053       -0.5483061690       -0.2637797398
 H         -2.2622668345       -1.2411514304        1.6821270170
 H         -3.0003179540       -2.4785491465        0.7095307579
 H         -4.5245740346       -0.5766224118        0.7723093453
 H         -3.9101093808       -0.7374284542       -0.8523675456
 H         -3.9194329766        1.6260583604       -0.2563684168
 H         -2.2643617641        1.1164609213       -0.4101329908
 H         -2.0741656760        0.9294176348        2.0992934029
 H         -3.7628349928        1.3856033832        2.2597606483
 H         -2.5929017955        2.5449106630        1.6347256936
