22
 xtb: 6.5.1 (fef0646)
N           -2.92493585376297       -0.67145613356519       -0.71185800846028
C           -3.07492530409566        0.75006211490564       -0.27727452285074
C           -2.24005692791971        1.07589994844447        0.95778875987319
C           -0.81667745190678        0.68726927046611        0.78492835131366
C           -0.41322765124300       -0.60329885034163        1.09904357198381
F           -1.31463962166396       -1.50453132606180        1.52243515601967
C            0.90479170779852       -0.98750109500794        0.90345689123469
F            1.28955406977297       -2.24220712596781        1.19255944913627
C            1.81493840476222       -0.08998501903145        0.36880970846495
F            3.08912654545937       -0.46715939921644        0.16420276883015
C            1.40742474583383        1.18818768755583        0.02162581696422
F            2.28290207257660        2.04543124831662       -0.52868020280660
C            0.09022766542242        1.57458648733739        0.22255739418637
F           -0.31726874825391        2.79390635614049       -0.16803279542416
Cl          -0.22659882663278       -1.32276167969316       -2.22280573870679
H           -3.73567066776051       -0.91282190995323       -1.33856159225223
H           -3.12037398196205       -1.27359733930781        0.17302751902317
H           -2.08964146486588       -0.87767151432962       -1.07305878600900
H           -4.14359521176751        1.03943720114833       -0.05349058932694
H           -2.77974761477916        1.39928267323928       -1.09369868275209
H           -2.63335184534846        0.55627996157000        1.84642691073211
H           -2.28110932087455        2.15514357046895        1.21287682205014
