  28

 N         -3.1862438609        1.3295584185       -0.3705910471
 C         -1.9822730497        1.9370964759        0.2663499376
 C         -0.6676170631        1.2722960447       -0.1623196758
 C         -0.5823539212       -0.2028680339        0.2905269746
 C          0.7396968102       -0.8545197941       -0.1452180731
 C          1.9600394728       -0.0687155343        0.3775171230
 C          3.2511322519       -0.7090410445       -0.0978658675
 O          4.0862836038       -1.2292712498        0.8414869075
 O          3.4693088745       -0.7280206114       -1.2923075895
 C          1.8795874518        1.4031317010       -0.0732287267
 C          0.5588098833        2.0546420749        0.3656481460
 Cl        -3.6110633361       -2.0390692046        0.6860814972
 H         -4.0465299056        1.8324603668       -0.1160627674
 H         -3.3073780776        0.3454648170       -0.0793773046
 H         -3.1048899818        1.3410184190       -1.3953319767
 H         -2.0733831263        1.8866336566        1.3562400834
 H         -1.9457545906        3.0051831170        0.0236169109
 H         -0.6240963578        1.2844700202       -1.2620273826
 H         -1.4361288993       -0.7711900759       -0.0951923698
 H         -0.6719578006       -0.2437424940        1.3810963023
 H          0.7945686616       -0.8911165377       -1.2385428016
 H          0.7946899182       -1.8995131109        0.1828887617
 H          1.9365348587       -0.0904673221        1.4753163307
 H          3.7375297151       -1.1196957398        1.7462607969
 H          1.9686643138        1.4368346657       -1.1642599290
 H          2.7443343040        1.9615433902        0.3055168085
 H          0.5108054727        3.1009098893        0.0409471439
 H          0.5113392284        2.0870647076        1.4592234443
          28
        -40.96447032
 N         -3.1489899112        1.5404949944       -0.4897101049
 C         -1.9633039706        2.0334376817        0.2687700827
 C         -0.6495429243        1.3670240531       -0.1608965516
 C         -0.6134172022       -0.1375391737        0.1911628966
 C          0.7064791319       -0.7916432560       -0.2481514032
 C          1.9280974511       -0.0732388692        0.3621022595
 C          3.2203053120       -0.7072244857       -0.1187930267
 O          4.0601555688       -1.2262048941        0.8168748529
 O          3.4377157133       -0.7158038701       -1.3131805430
 C          1.8945587989        1.4275303979        0.0126881212
 C          0.5763992886        2.0794898676        0.4586848403
 Cl        -3.7488170834       -1.9060098831        0.0958711787
 H         -4.0071554311        2.0392854062       -0.2202198838
 H         -3.3111995509        0.5338701811       -0.3214177786
 H         -3.0153670416        1.6670039730       -1.5011586317
 H         -2.1145347574        1.8740126982        1.3412653964
 H         -1.8791483307        3.1184231219        0.1403864394
 H         -0.5675532659        1.4534916130       -1.2550303265
 H         -1.4679957947       -0.6557861034       -0.2577858488
 H         -0.7379406792       -0.2496851449        1.2732699166
 H          0.7948026001       -0.7568773351       -1.3392835710
 H          0.7277981237       -1.8569716828        0.0114808476
 H          1.8696793973       -0.1711081699        1.4544330332
 H          3.7109845567       -1.1256922508        1.7224006819
 H          2.0147837124        1.5330627449       -1.0707416044
 H          2.7600257665        1.9376908039        0.4524606341
 H          0.5621355386        3.1470485335        0.2086189767
 H          0.4949160294        2.0337926605        1.5497005463
          28
        -40.96456942
 N         -3.1500595592        1.5424382381       -0.4764226389
 C         -1.9602184348        2.0381255316        0.2736192524
 C         -0.6496317925        1.3664034771       -0.1576612651
 C         -0.6105837923       -0.1332765870        0.2144340489
 C          0.7057008953       -0.7934282400       -0.2265940961
 C          1.9321370561       -0.0670698763        0.3641004641
 C          3.2198858942       -0.7083426015       -0.1191658660
 O          4.0512787581       -1.2453397806        0.8138317057
 O          3.4404566597       -0.7082041729       -1.3130025833
 C          1.8958061339        1.4290085673       -0.0047877474
 C          0.5811212600        2.0870734002        0.4425670030
 Cl        -3.7510312383       -1.9093154861        0.0826922344
 H         -4.0071601596        2.0395457508       -0.2007294350
 H         -3.3094063017        0.5354771163       -0.3076989069
 H         -3.0238775548        1.6692113186       -1.4887724735
 H         -2.1066484722        1.8861682447        1.3478627013
 H         -1.8751870212        3.1221383580        0.1374921016
 H         -0.5764725516        1.4382866569       -1.2534675656
 H         -1.4688004347       -0.6575066238       -0.2203653388
 H         -0.7263369894       -0.2306932399        1.2989473757
 H          0.7852030449       -0.7735018183       -1.3187620409
 H          0.7290277292       -1.8551366904        0.0473419184
 H          1.8829968643       -0.1499362864        1.4581002070
 H          3.7010452231       -1.1487488781        1.7193760267
 H          2.0078685380        1.5201210098       -1.0903852675
 H          2.7645764495        1.9448778855        0.4215659505
 H          0.5648859308        3.1511013204        0.1779715169
 H          0.5081865362        2.0563644078        1.5347066533
          28
        -40.97375840
 N         -3.1245136654        1.5303867800       -0.5800978938
 C         -1.9605622340        2.0412113187        0.1999036398
 C         -0.6360625475        1.3623792608       -0.1731700713
 C         -0.6197847724       -0.1374271412        0.1993082697
 C          0.7091339234       -0.8041995740       -0.1908887910
 C          1.9164528499       -0.0828429122        0.4429451843
 C          3.2185222132       -0.7231574356        0.0093295060
 O          3.4399815780       -0.7763531841       -1.3248163083
 O          3.9941995927       -1.1448609735        0.8414450184
 C          1.9007914454        1.4158138749        0.0854991863
 C          0.5708280191        2.0763871048        0.4807255278
 Cl        -3.7489941056       -1.8899252235        0.1202369557
 H         -3.9881158611        2.0422571368       -0.3555285580
 H         -3.2980412590        0.5308101675       -0.3834068228
 H         -2.9572162974        1.6213695676       -1.5903718426
 H         -2.1438920342        1.9092810731        1.2711119103
 H         -1.8700400525        3.1224069858        0.0463099796
 H         -0.5142376267        1.4337408443       -1.2647227294
 H         -1.4629887815       -0.6567521997       -0.2694185281
 H         -0.7783982380       -0.2347392665        1.2783814388
 H          0.8289121392       -0.7886499939       -1.2794145256
 H          0.7173083472       -1.8649317157        0.0876848465
 H          1.8477516812       -0.1822938092        1.5356203705
 H          4.2987061741       -1.1972890576       -1.4793974104
 H          2.0617042836        1.5167577026       -0.9930767502
 H          2.7515877489        1.9230728814        0.5563736557
 H          0.5688133172        3.1415260180        0.2201345839
 H          0.4525388469        2.0415252125        1.5687504446
          28
        -40.97397290
 N         -3.1226726953        1.5415279389       -0.5557890784
 C         -1.9583279455        2.0398628523        0.2317830053
 C         -0.6357506791        1.3606435176       -0.1473707930
 C         -0.6160953871       -0.1379790982        0.2294502633
 C          0.7093142804       -0.8052479312       -0.1714916623
 C          1.9222095711       -0.0820985894        0.4490595115
 C          3.2164079873       -0.7294043830        0.0024465655
 O          3.5210830415       -0.6049770330       -1.3101519096
 O          3.9066088679       -1.3229292406        0.8042008397
 C          1.9025644446        1.4163103091        0.0895050501
 C          0.5756830406        2.0764772090        0.4958861972
 Cl        -3.7553883285       -1.8927892317        0.0693226377
 H         -3.9862877700        2.0485834379       -0.3208185887
 H         -3.2953664881        0.5383044995       -0.3777135735
 H         -2.9572310102        1.6519459312       -1.5645025288
 H         -2.1432125916        1.8975955335        1.3013991769
 H         -1.8637776494        3.1222840392        0.0898308794
 H         -0.5208630658        1.4286857038       -1.2398663390
 H         -1.4639259902       -0.6587736125       -0.2291527993
 H         -0.7640757109       -0.2319983733        1.3103212316
 H          0.8186493943       -0.7925920040       -1.2611801972
 H          0.7209444996       -1.8650623302        0.1106629532
 H          1.8645802059       -0.1794321947        1.5425299056
 H          4.3604726718       -1.0585948463       -1.4776618542
 H          2.0532912401        1.5152043224       -0.9907414264
 H          2.7575939085        1.9252190540        0.5507030739
 H          0.5704855445        3.1414913382        0.2349285620
 H          0.4666098126        2.0417848458        1.5848783062
