  28

 N          1.0641500000        0.0570100000        0.1878300000
 C          2.4831900000       -0.2601300000        0.3694300000
 C          2.9174400000       -1.4328900000       -0.5215400000
 C          2.1483000000       -2.7260500000       -0.1967900000
 C          2.6914900000       -3.9442100000       -0.9459000000
 C          4.1900800000       -4.1137300000       -0.7094300000
 C          4.6777400000       -5.4127000000       -1.3293800000
 O          5.0484100000       -5.3488700000       -2.6225600000
 O          4.6894100000       -6.4704800000       -0.7108500000
 C          4.9487500000       -2.8570100000       -1.1364900000
 C          4.4390000000       -1.6333600000       -0.3749200000
 Cl         0.5734100000        1.6586500000       -2.1362300000
 H          0.7768300000        0.9164700000        0.6775400000
 H          0.3721500000       -0.6741200000        0.3424800000
 H          0.9089700000        0.4026800000       -0.8050900000
 H          2.6206400000       -0.4877400000        1.4328200000
 H          3.0464500000        0.6474500000        0.1335000000
 H          2.7149800000       -1.1758200000       -1.5699700000
 H          1.0885600000       -2.6099700000       -0.4493400000
 H          2.1975800000       -2.9220900000        0.8826500000
 H          2.4886700000       -3.8378900000       -2.0189000000
 H          2.1507700000       -4.8395800000       -0.6169800000
 H          4.3608000000       -4.2362700000        0.3702300000
 H          4.9583800000       -4.4831800000       -3.0559200000
 H          4.8295100000       -2.6688500000       -2.2095900000
 H          6.0225300000       -2.9846700000       -0.9559700000
 H          4.9643700000       -0.7414100000       -0.7398400000
 H          4.6986400000       -1.7396900000        0.6862400000
