  28

 N          1.3008995216        0.5261136236       -0.5569453835
 C          2.6117847047        0.0971928511       -0.0289947313
 C          3.0273603341       -1.2637662662       -0.5879072845
 C          2.2489199279       -2.3990280687        0.0772299478
 C          2.6619862866       -3.7468068872       -0.5046190821
 C          4.1701475106       -3.9756739109       -0.2976283134
 C          4.5178201852       -5.3062741295       -0.9230621812
 O          4.4437818656       -6.3784844007       -0.1324407614
 O          4.8114728062       -5.4437572710       -2.0891937818
 C          4.9574085968       -2.8380080877       -0.9504428643
 C          4.5280619683       -1.4882876669       -0.3837714580
 Cl        -1.2336452472       -1.1349116330       -0.0932651225
 H          1.0349385294        1.4394285892       -0.1820055203
 H          0.5243210122       -0.1350007146       -0.3105652551
 H          1.3221154197        0.5744215728       -1.5785198588
 H          2.5508068822        0.0409964309        1.0572863613
 H          3.3579675679        0.8439741373       -0.3044017700
 H          2.8225203098       -1.2886092517       -1.6621551845
 H          1.1756376819       -2.2658878813       -0.0635520596
 H          2.4458303412       -2.3966742346        1.1508901203
 H          2.4463536133       -3.7726689466       -1.5750870695
 H          2.0867907092       -4.5475304283       -0.0355885111
 H          4.3826173549       -3.9986642758        0.7752690139
 H          4.2319812243       -6.1717767773        0.7958197768
 H          4.7851663779       -2.8724379423       -2.0276705222
 H          6.0251216392       -2.9933642285       -0.7849165906
 H          5.0960148856       -0.7015540089       -0.8804076962
 H          4.7594579911       -1.4532401932        0.6818957819
