 xtb: 6.5.1 (fef0646)
          01242317073D

 22 21  0     0  0            999 V2000
   -1.2602   -0.6709    0.7015 N   0  0  0  0  0  0  0  0  0  0  0  0
   -0.8589   -1.2792   -0.5983 C   0  0  0  0  0  0  0  0  0  0  0  0
    0.5973   -1.7391   -0.5948 C   0  0  0  0  0  0  0  0  0  0  0  0
    1.5603   -0.6063   -0.3887 C   0  0  0  0  0  0  0  0  0  0  0  0
    2.1074   -0.3561    0.8618 C   0  0  0  0  0  0  0  0  0  0  0  0
    2.9627    0.7104    1.0563 C   0  0  0  0  0  0  0  0  0  0  0  0
    3.2790    1.5436    0.0023 C   0  0  0  0  0  0  0  0  0  0  0  0
    2.7375    1.3089   -1.2455 C   0  0  0  0  0  0  0  0  0  0  0  0
    1.8820    0.2423   -1.4380 C   0  0  0  0  0  0  0  0  0  0  0  0
   -4.5802    0.4573    0.5485 Cl  0  0  0  0  0  0  0  0  0  0  0  0
   -2.2420   -0.3395    0.6876 H   0  0  0  0  0  0  0  0  0  0  0  0
   -0.6607    0.1352    0.9267 H   0  0  0  0  0  0  0  0  0  0  0  0
   -1.1665   -1.3488    1.4708 H   0  0  0  0  0  0  0  0  0  0  0  0
   -1.0101   -0.5500   -1.4028 H   0  0  0  0  0  0  0  0  0  0  0  0
   -1.5255   -2.1186   -0.8316 H   0  0  0  0  0  0  0  0  0  0  0  0
    0.8421   -2.2503   -1.5333 H   0  0  0  0  0  0  0  0  0  0  0  0
    0.7449   -2.4862    0.1922 H   0  0  0  0  0  0  0  0  0  0  0  0
    1.8557   -1.0031    1.6853 H   0  0  0  0  0  0  0  0  0  0  0  0
    3.3819    0.8936    2.0327 H   0  0  0  0  0  0  0  0  0  0  0  0
    3.9463    2.3769    0.1537 H   0  0  0  0  0  0  0  0  0  0  0  0
    2.9809    1.9598   -2.0699 H   0  0  0  0  0  0  0  0  0  0  0  0
    1.4531    0.0613   -2.4095 H   0  0  0  0  0  0  0  0  0  0  0  0
  1  2  1  0  0  0  0
  2  3  1  0  0  0  0
  3  4  1  0  0  0  0
  4  5  4  0  0  0  0
  5  6  4  0  0  0  0
  6  7  4  0  0  0  0
  7  8  4  0  0  0  0
  4  9  4  0  0  0  0
  8  9  4  0  0  0  0
  1 11  1  0  0  0  0
  1 12  1  0  0  0  0
  1 13  1  0  0  0  0
  2 14  1  0  0  0  0
  2 15  1  0  0  0  0
  3 16  1  0  0  0  0
  3 17  1  0  0  0  0
  5 18  1  0  0  0  0
  6 19  1  0  0  0  0
  7 20  1  0  0  0  0
  8 21  1  0  0  0  0
  9 22  1  0  0  0  0
M  END
