22
 xtb: 6.5.1 (fef0646)
N           -0.44967839630458       -0.70865985318071        0.97273539921423
C            0.84128968640245       -0.64556046898439        0.21280628927228
C            0.70111427181223        0.26627169543262       -1.02553560846949
C            0.60797032405292        1.75192199843259       -0.64085816622896
C            1.81654491416407        2.18189036719769        0.20653963936782
C            1.94935445079451        1.30189460224324        1.46066295403181
C            2.02847855797329       -0.19026220033197        1.09312838620815
Cl          -2.83880264453686       -1.49930566828711       -0.93359017275502
H           -0.62244168637993        0.23750571526780        1.41737361984325
H           -0.31569276512001       -1.34469067517778        1.82721295920562
H           -1.19759097274644       -0.98719936140369        0.44414155735225
H            1.07607895189399       -1.66726627111370       -0.11466518652549
H           -0.18336535230834       -0.04673996337685       -1.57128387505536
H            1.55477649518152        0.11359499545581       -1.68634373418349
H           -0.31035317498486        1.92797014750805       -0.06086054824034
H            0.51515478210896        2.37300228651884       -1.53170068523618
H            1.74543938248528        3.25286992094365        0.47721720544679
H            2.73234410909371        2.11204689825275       -0.40533869122113
H            1.12230671761229        1.48096637780037        2.12844473974655
H            2.85811307806966        1.62433711751721        2.04045854344566
H            2.12432809316705       -0.78906306287831        2.00285893512831
H            3.00187123758510       -0.36154883425370        0.55154215393479
