23

N          0.97351        0.03273       -0.08521
C          2.45511        0.04362       -0.07744
C          2.96576       -1.00844       -1.04988
C          4.49412       -1.03294       -1.07262
C          5.01757       -2.08726       -2.04765
C          6.54495       -2.11181       -2.07038
C          7.06636       -3.16024       -3.03958
H          0.59497        0.73514        0.56408
H          0.59892       -0.88169        0.20117
H          0.59704        0.24497       -1.01890
H          2.76943       -0.16153        0.95013
H          2.76743        1.05212       -0.36412
H          2.58615       -0.79968       -2.05789
H          2.58630       -1.99700       -0.76261
H          4.87309       -1.24345       -0.06497
H          4.87317       -0.04485       -1.36080
H          4.63822       -1.87688       -3.05510
H          4.63813       -3.07520       -1.75943
H          6.92973       -2.32591       -1.06623
H          6.92970       -1.12763       -2.36228
H          6.72355       -4.16044       -2.75580
H          8.16076       -3.16310       -3.04228
H          6.72352       -2.95571       -4.05895
