28
 xtb: 6.5.1 (fef0646)
N           -2.25885845960875       -1.03160723639134        0.79640147950462
C           -0.92364983841431       -0.49128400299623        0.40185299510569
C            0.19742681074514       -1.08231978081955        1.24732175192099
C            1.60707247320949       -0.56907728147499        0.89462100208498
C            1.76825374949611        0.95308216648542        1.11486751038351
C            3.21955151604393        1.39723639529863        0.85963896849771
C            3.67443686600668        1.00880316804412       -0.55939186961804
C            3.49232299444294       -0.49941427984966       -0.81071481840209
C            2.03914409514440       -0.93171611817495       -0.54518887952484
Cl          -4.90485882269465        0.59182102778474       -1.43026262425264
H           -2.33170231112017       -2.01595997448923        0.63299255946452
H           -3.03997699812943       -0.58128958217725        0.16429894439348
H           -2.50629378223096       -0.78377279779667        1.73051723224394
H           -0.94180313894719        0.62386043888849        0.46173146783932
H           -0.75595882703179       -0.67311036508358       -0.68900857905830
H            0.13569055011207       -2.15872494579837        1.13231297357398
H           -0.04922600023333       -0.86228158441625        2.28044415276568
H            2.29028050515567       -1.06241411064512        1.56823188312997
H            1.41227913760881        1.23658378525949        2.11385758191950
H            1.09435283320320        1.49447366622460        0.41597838235264
H            3.85905018012644        0.91282992103582        1.60390717027729
H            3.32335649696318        2.47222405298143        1.02850442050023
H            4.71571692342338        1.29530148100699       -0.71475710776509
H            3.09056616765398        1.56871735573517       -1.29211832684953
H            4.14497141680142       -1.07132730147297       -0.14084024088589
H            3.79136740095049       -0.77244359041992       -1.82463757375115
H            1.87919163761521       -2.00146087556234       -0.73406607202478
H            1.36986212518443       -0.41810988444321       -1.26590701203503
