23
 xtb: 6.5.1 (fef0646)
N           -2.67204920873519        1.27484891123493        0.83074568310381
C           -1.51668239485265        2.10808530848622        0.40802544742128
C           -0.24111339662731        1.32768282735364        0.39311324104997
C            0.10097130317214        0.55515302646993       -0.70914791706462
C            1.25999074151325       -0.19463185025060       -0.71378032720963
C            2.11005393095410       -0.20529698772467        0.39180269038413
C            3.34972672857112       -0.98640462655449        0.42155305444021
C            3.65260330506535       -1.97270101052198       -0.41567698831646
C            1.75415056971751        0.56588413901169        1.49865154757976
C            0.59635347297809        1.31702511137687        1.49992472614633
Cl          -2.79021576828725       -1.52138542731531       -1.41944488734557
H           -2.76454991848306        0.43593249556472        0.18009628606997
H           -3.56949065414995        1.76121372623121        0.80593407143186
H           -2.52635040500558        0.87082396452253        1.76557234206131
H           -1.43168535554668        2.95518675657207        1.07145734084807
H           -1.70906690049809        2.51542192096650       -0.59678786998655
H           -0.51981874795573        0.58526985544029       -1.59441479120122
H            1.55461506623226       -0.72363908832240       -1.61089146324069
H            4.08020861023533       -0.69797403780179        1.16263948206326
H            2.93261737763319       -2.32197299442376       -1.14190080987469
H            4.55711728169436       -2.53105743109472       -0.33255831197902
H            2.37184829202938        0.53527983975793        2.37737258726793
H            0.29728094424589        1.85788872461270        2.37779142096133
