21
 xtb: 6.5.1 (fef0646)
N           -0.51027295127192       -0.91374890669718       -1.01146900617723
C            0.25621176090793       -1.44281591344821        0.16135475563755
C            0.55949382673415       -0.35984686395191        1.19478590501181
C            1.45418069940124        0.78433884108181        0.70320626702141
C            2.91009810279612        0.38143415104952        0.39843069001088
C            3.14792758029910       -0.05089090193620       -1.04241620100930
Cl          -3.08199718675656        0.67652290597628       -0.06406471907369
H            0.16774456962117       -0.29234001679456       -1.57085205249348
H           -1.28568095247101       -0.47306667119162       -0.78091528333747
H           -0.66291173593910       -1.72858842190084       -1.69232499264469
H            1.23335069554760       -1.95522394353026       -0.11484538706161
H           -0.30666308760420       -2.26075286055028        0.62842560640376
H            1.00438344008646       -0.79859445013548        2.09525466163696
H           -0.40565128500732        0.04245811441487        1.51457323069929
H            1.44818157075910        1.57626481987396        1.45894646415040
H            1.01217954190501        1.24678238258879       -0.18851111317807
H            3.21874796736827       -0.41287767486049        1.09045268264045
H            3.57882640729186        1.22302075331205        0.62695358973935
H            4.19910601209239       -0.30483872024898       -1.22358359948454
H            2.88527694040379        0.74318199581855       -1.74229968223497
H            2.56009227414434       -0.92545883985966       -1.31449148466186
