 xtb: 6.5.1 (fef0646)
          01242317103D

 21 19  0     0  0            999 V2000
   -0.3761   -0.9852   -1.0598 N   0  0  0  0  0  0  0  0  0  0  0  0
    0.3108   -1.4757    0.1704 C   0  0  0  0  0  0  0  0  0  0  0  0
    0.5610   -0.3668    1.1881 C   0  0  0  0  0  0  0  0  0  0  0  0
    1.4535    0.7798    0.6985 C   0  0  0  0  0  0  0  0  0  0  0  0
    2.9110    0.3802    0.3968 C   0  0  0  0  0  0  0  0  0  0  0  0
    3.1534   -0.0521   -1.0436 C   0  0  0  0  0  0  0  0  0  0  0  0
   -3.2282    0.7634   -0.0233 Cl  0  0  0  0  0  0  0  0  0  0  0  0
    0.2108   -0.3112   -1.5762 H   0  0  0  0  0  0  0  0  0  0  0  0
   -1.2513   -0.4977   -0.8120 H   0  0  0  0  0  0  0  0  0  0  0  0
   -0.6127   -1.7521   -1.7057 H   0  0  0  0  0  0  0  0  0  0  0  0
    1.2536   -1.9659   -0.0946 H   0  0  0  0  0  0  0  0  0  0  0  0
   -0.2975   -2.2675    0.6267 H   0  0  0  0  0  0  0  0  0  0  0  0
    0.9993   -0.7938    2.0992 H   0  0  0  0  0  0  0  0  0  0  0  0
   -0.4093    0.0383    1.5027 H   0  0  0  0  0  0  0  0  0  0  0  0
    1.4465    1.5749    1.4575 H   0  0  0  0  0  0  0  0  0  0  0  0
    1.0121    1.2455   -0.1900 H   0  0  0  0  0  0  0  0  0  0  0  0
    3.2194   -0.4126    1.0904 H   0  0  0  0  0  0  0  0  0  0  0  0
    3.5781    1.2233    0.6266 H   0  0  0  0  0  0  0  0  0  0  0  0
    4.2017   -0.3011   -1.2237 H   0  0  0  0  0  0  0  0  0  0  0  0
    2.8842    0.7415   -1.7431 H   0  0  0  0  0  0  0  0  0  0  0  0
    2.5659   -0.9288   -1.3146 H   0  0  0  0  0  0  0  0  0  0  0  0
  1  2  1  0  0  0  0
  2  3  1  0  0  0  0
  3  4  1  0  0  0  0
  4  5  1  0  0  0  0
  5  6  1  0  0  0  0
  1  8  1  0  0  0  0
  1  9  1  0  0  0  0
  1 10  1  0  0  0  0
  2 11  1  0  0  0  0
  2 12  1  0  0  0  0
  3 13  1  0  0  0  0
  3 14  1  0  0  0  0
  4 15  1  0  0  0  0
  4 16  1  0  0  0  0
  5 17  1  0  0  0  0
  5 18  1  0  0  0  0
  6 19  1  0  0  0  0
  6 20  1  0  0  0  0
  6 21  1  0  0  0  0
M  END
