22
0.0
N           -1.23794   1.46956   1.26287
C           -0.67583   2.29194   0.15727
C           -0.14076   1.42657  -0.98136
C            0.88528   0.43218  -0.52115
C            0.50448  -0.84790  -0.14145
C            1.43887  -1.75397   0.32019
C            2.76731  -1.38870   0.41297
C            3.15819  -0.11575   0.04713
C            2.22204   0.78993  -0.41362
Cl          -3.08623  -1.10751  -0.18584
H           -1.92361   0.78871   0.89618
H           -1.70595   2.04145   1.98618
H           -0.49286   0.92027   1.72829
H            0.12724   2.92644   0.55119
H           -1.44285   2.98177  -0.21745
H            0.28946   2.05182  -1.77315
H           -0.96994   0.88725  -1.45354
H           -0.53621  -1.12367  -0.19949
H            1.12983  -2.74581   0.61165
H            3.49819  -2.09558   0.77360
H            4.19508   0.17259   0.12274
H            2.52333   1.78694  -0.69194
