22
 xtb: 6.5.1 (fef0646)
N           -1.13819710192875       -1.61865719322328       -1.32343928547761
C           -0.61842320676198       -2.35551037958180       -0.13505625775076
C           -0.15671700185628       -1.41649330883386        0.97996901174904
C            0.87115800003698       -0.42689559562970        0.51427688733351
C            2.20639596286861       -0.78927134710225        0.40621330899744
C            3.14470827464126        0.11255820240322       -0.05481568137978
C            2.75736729729324        1.38703605805439       -0.41820387576284
C            1.43078746497339        1.75669044204771       -0.32350864055996
C            0.49307088941609        0.85338613800246        0.13637739015875
Cl          -3.15337173611916        1.24514223739029        0.24217407903516
H           -1.92580006593743       -0.87952276784905       -0.94310822216054
H           -1.64046039097815       -2.14116712695303       -1.99894448065280
H           -0.47302273935586       -0.97939216192493       -1.72917781520791
H            0.16448531554636       -2.95546221144044       -0.50096038470541
H           -1.41544601046816       -3.01224884398317        0.24385671907981
H            0.27376527097063       -2.01725644309040        1.80102309754548
H           -0.98943200981131       -0.87482451701487        1.42811524543549
H            2.51438913114064       -1.78093082142372        0.69318789944261
H            4.18624559911670       -0.17048673999727       -0.12461016213804
H            3.49077481683529        2.09643012036036       -0.77826197318762
H            1.12373623750647        2.74713182921273       -0.61790615978177
H           -0.54289039536495        1.12713869455298        0.19349123721933
