 xtb: 6.5.1 (fef0646)
          02032320183D

 22 21  0     0  0            999 V2000
   -1.2381   -1.5111   -1.2630 N   0  0  0  0  0  0  0  0  0  0  0  0
   -0.6677   -2.3080   -0.1394 C   0  0  0  0  0  0  0  0  0  0  0  0
   -0.1439   -1.4190    0.9871 C   0  0  0  0  0  0  0  0  0  0  0  0
    0.8803   -0.4273    0.5192 C   0  0  0  0  0  0  0  0  0  0  0  0
    2.2170   -0.7837    0.4149 C   0  0  0  0  0  0  0  0  0  0  0  0
    3.1524    0.1209   -0.0472 C   0  0  0  0  0  0  0  0  0  0  0  0
    2.7610    1.3922   -0.4166 C   0  0  0  0  0  0  0  0  0  0  0  0
    1.4326    1.7559   -0.3265 C   0  0  0  0  0  0  0  0  0  0  0  0
    0.4991    0.8502    0.1356 C   0  0  0  0  0  0  0  0  0  0  0  0
   -3.0758    1.1222    0.1818 Cl  0  0  0  0  0  0  0  0  0  0  0  0
   -1.9236   -0.8244   -0.9050 H   0  0  0  0  0  0  0  0  0  0  0  0
   -1.7062   -2.0997   -1.9669 H   0  0  0  0  0  0  0  0  0  0  0  0
   -0.5001   -0.9738   -1.7387 H   0  0  0  0  0  0  0  0  0  0  0  0
    0.1422   -2.9419   -0.5189 H   0  0  0  0  0  0  0  0  0  0  0  0
   -1.4274   -2.9989    0.2466 H   0  0  0  0  0  0  0  0  0  0  0  0
    0.2835   -2.0279    1.7923 H   0  0  0  0  0  0  0  0  0  0  0  0
   -0.9788   -0.8770    1.4445 H   0  0  0  0  0  0  0  0  0  0  0  0
    2.5187   -1.7785    0.6970 H   0  0  0  0  0  0  0  0  0  0  0  0
    4.1890   -0.1667   -0.1211 H   0  0  0  0  0  0  0  0  0  0  0  0
    3.4911    2.0986   -0.7780 H   0  0  0  0  0  0  0  0  0  0  0  0
    1.1230    2.7461   -0.6203 H   0  0  0  0  0  0  0  0  0  0  0  0
   -0.5413    1.1251    0.1922 H   0  0  0  0  0  0  0  0  0  0  0  0
  1  2  1  0  0  0  0
  2  3  1  0  0  0  0
  3  4  1  0  0  0  0
  4  5  4  0  0  0  0
  5  6  4  0  0  0  0
  6  7  4  0  0  0  0
  7  8  4  0  0  0  0
  4  9  4  0  0  0  0
  8  9  4  0  0  0  0
  1 11  1  0  0  0  0
  1 12  1  0  0  0  0
  1 13  1  0  0  0  0
  2 14  1  0  0  0  0
  2 15  1  0  0  0  0
  3 16  1  0  0  0  0
  3 17  1  0  0  0  0
  5 18  1  0  0  0  0
  6 19  1  0  0  0  0
  7 20  1  0  0  0  0
  8 21  1  0  0  0  0
  9 22  1  0  0  0  0
M  END
