 xtb: 6.5.1 (fef0646)
          02032318013D

 27 27  0     0  0            999 V2000
   -4.0769    0.5518   -0.6698 N   0  0  0  0  0  0  0  0  0  0  0  0
   -3.2240   -0.1678    0.3251 C   0  0  0  0  0  0  0  0  0  0  0  0
   -1.7355   -0.2228   -0.0567 C   0  0  0  0  0  0  0  0  0  0  0  0
   -0.9481   -1.1993    0.8533 C   0  0  0  0  0  0  0  0  0  0  0  0
    0.5342   -1.2843    0.4498 C   0  0  0  0  0  0  0  0  0  0  0  0
    1.2075    0.1047    0.4508 C   0  0  0  0  0  0  0  0  0  0  0  0
    2.6407   -0.0102   -0.0140 C   0  0  0  0  0  0  0  0  0  0  0  0
    2.8324   -0.0609   -1.3448 O   0  0  0  0  0  0  0  0  0  0  0  0
    3.5324   -0.0755    0.7988 O   0  0  0  0  0  0  0  0  0  0  0  0
    0.4207    1.0949   -0.4332 C   0  0  0  0  0  0  0  0  0  0  0  0
   -1.0631    1.1709   -0.0301 C   0  0  0  0  0  0  0  0  0  0  0  0
   -3.8193    1.5424   -0.7369 H   0  0  0  0  0  0  0  0  0  0  0  0
   -5.0675    0.5089   -0.4060 H   0  0  0  0  0  0  0  0  0  0  0  0
   -3.9809    0.1346   -1.6019 H   0  0  0  0  0  0  0  0  0  0  0  0
   -3.6061   -1.1882    0.4403 H   0  0  0  0  0  0  0  0  0  0  0  0
   -3.3301    0.3035    1.3075 H   0  0  0  0  0  0  0  0  0  0  0  0
   -1.6670   -0.6030   -1.0870 H   0  0  0  0  0  0  0  0  0  0  0  0
   -1.4121   -2.1929    0.8347 H   0  0  0  0  0  0  0  0  0  0  0  0
   -1.0264   -0.8579    1.8908 H   0  0  0  0  0  0  0  0  0  0  0  0
    0.6256   -1.7149   -0.5535 H   0  0  0  0  0  0  0  0  0  0  0  0
    1.0848   -1.9641    1.1120 H   0  0  0  0  0  0  0  0  0  0  0  0
    1.2272    0.4872    1.4817 H   0  0  0  0  0  0  0  0  0  0  0  0
    3.7693   -0.1475   -1.5414 H   0  0  0  0  0  0  0  0  0  0  0  0
    0.5125    0.7731   -1.4768 H   0  0  0  0  0  0  0  0  0  0  0  0
    0.8906    2.0855   -0.3938 H   0  0  0  0  0  0  0  0  0  0  0  0
   -1.5998    1.8680   -0.6827 H   0  0  0  0  0  0  0  0  0  0  0  0
   -1.1484    1.5871    0.9792 H   0  0  0  0  0  0  0  0  0  0  0  0
  1  2  1  0  0  0  0
  2  3  1  0  0  0  0
  3  4  1  0  0  0  0
  4  5  1  0  0  0  0
  5  6  1  0  0  0  0
  6  7  1  0  0  0  0
  7  8  1  0  0  0  0
  7  9  2  0  0  0  0
  6 10  1  0  0  0  0
  3 11  1  0  0  0  0
 10 11  1  0  0  0  0
  1 12  1  0  0  0  0
  1 13  1  0  0  0  0
  1 14  1  0  0  0  0
  2 15  1  0  0  0  0
  2 16  1  0  0  0  0
  3 17  1  0  0  0  0
  4 18  1  0  0  0  0
  4 19  1  0  0  0  0
  5 20  1  0  0  0  0
  5 21  1  0  0  0  0
  6 22  1  0  0  0  0
  8 23  1  0  0  0  0
 10 24  1  0  0  0  0
 10 25  1  0  0  0  0
 11 26  1  0  0  0  0
 11 27  1  0  0  0  0
M  CHG  1   1   1
M  END
