  18

 N         -0.8990975393       -1.5740940441       -0.3158079877
 C          0.4157619820       -1.3606984172        0.3493260029
 C          1.1903368958       -0.2041827860       -0.2696127315
 C          2.5324869073        0.0544108364        0.4160344065
 C          3.3090245569        1.1953037498       -0.2230461509
 Cl        -2.7242184245        1.3862125340       -0.0708536392
 H         -1.4319125645       -2.3521803879        0.1064869518
 H         -0.7770069114       -1.7842498539       -1.3192089953
 H         -1.4844831570       -0.7186528594       -0.2527617006
 H          1.0125069385       -2.2792273996        0.2961663318
 H          0.2632968488       -1.1737426190        1.4192594825
 H          0.5779933752        0.7052894262       -0.2387730514
 H          1.3511509321       -0.4002651939       -1.3369641226
 H          3.1314092929       -0.8660763955        0.4005089079
 H          2.3614535685        0.2623588134        1.4809394395
 H          3.5317131524        0.9836879106       -1.2715097922
 H          4.2597941979        1.3807729795        0.2832917252
 H          2.7370901680        2.1256146799       -0.1979628791
          18
        -22.10472684
 N         -0.2040283224       -1.7114929013       -0.6256584602
 C          0.7916090702       -1.6533903662        0.4798728599
 C          1.2889156805       -0.2353627445        0.7438118247
 C          2.0691879727        0.3616291577       -0.4270643962
 C          2.5873823048        1.7612465777       -0.1330587004
 Cl        -2.6413782131        0.6785010614        0.0398617346
 H         -0.6111750691       -2.6547188791       -0.7368707806
 H          0.2190187569       -1.4496362078       -1.5296134305
 H         -0.9834387793       -1.0486551920       -0.4496325630
 H          1.6395078064       -2.3081712119        0.2458048653
 H          0.3419778304       -2.0697767000        1.3907496482
 H          1.9187917291       -0.2174434345        1.6428786533
 H          0.4352125586        0.4123818541        0.9791331739
 H          1.4334845845        0.3795878771       -1.3217683883
 H          2.9033282226       -0.3048810558       -0.6844482580
 H          1.7668435854        2.4482896143        0.0863196835
 H          3.1485742364        2.1775390280       -0.9735265689
 H          3.2490283339        1.7635948789        0.7359864134
