16
2.114
N           -0.09382  -1.34944   0.95605
C            0.82622  -1.39283  -0.21404
C            0.88006  -0.06000  -0.93998
S            1.39160   1.30978   0.09809
C            3.08746   0.85439   0.33427
Cl          -3.21916  -0.29301  -0.21652
H           -1.04492  -1.07626   0.65508
H            0.22091  -0.64602   1.63722
H           -0.15865  -2.25665   1.43890
H            0.50920  -2.18722  -0.90204
H            1.82993  -1.68021   0.11955
H           -0.11051   0.19013  -1.32791
H            1.54728  -0.10291  -1.80497
H            3.60926   1.64300   0.87169
H            3.58039   0.70645  -0.62390
H            3.16378  -0.06154   0.91499
