23
 xtb: 6.5.1 (fef0646)
N           -2.76424370216695       -0.79044883765239       -0.04753482367432
C           -1.80331575774470       -0.04780299762023        0.82654446640623
C           -1.05246619937845        1.06302307435923        0.09553866936824
C           -0.17386749752059        0.59720832903339       -1.06871972765527
C            0.97214850748113       -0.33670959714870       -0.66636690521003
C            2.00225911560973        0.31373978173863        0.26083012849033
C            3.18465317972971       -0.59627739135726        0.56574557474157
H           -2.29112476848266       -1.37896810620468       -0.73537341073968
H           -3.37046847652920       -0.10824542798572       -0.54906171743950
H           -3.38105361445667       -1.39270814782008        0.53273908814638
H           -1.07626213311830       -0.76284849992297        1.24596500993274
H           -2.32679798727291        0.36966952093977        1.68184671212422
H           -0.44643400092572        1.63955817712700        0.79186252881529
H           -1.79703763399956        1.78081631797772       -0.29220459438720
H            0.24903512181163        1.46174802394601       -1.59184844340111
H           -0.80160985133675        0.09681163084211       -1.82328369969803
H            1.48799066751630       -0.70448425467404       -1.56307817447358
H            0.57304402877459       -1.23837957075900       -0.18673959367462
H            1.51579531566325        0.63327466555625        1.18706649456492
H            2.36801722062182        1.24039614682609       -0.20556009499498
H            3.89879721178695       -0.11767516692988        1.24281524557799
H            3.70714568029379       -0.89523921577029       -0.32386347102226
H            2.83973646572370       -1.51315792778566        1.07293916943237
