 xtb: 6.5.1 (fef0646)
          01242317113D

 23 22  0     0  0            999 V2000
   -2.7720   -0.7773   -0.0346 N   0  0  0  0  0  0  0  0  0  0  0  0
   -1.7858   -0.0507    0.8193 C   0  0  0  0  0  0  0  0  0  0  0  0
   -1.0564    1.0677    0.0789 C   0  0  0  0  0  0  0  0  0  0  0  0
   -0.1732    0.5892   -1.0777 C   0  0  0  0  0  0  0  0  0  0  0  0
    0.9741   -0.3401   -0.6661 C   0  0  0  0  0  0  0  0  0  0  0  0
    2.0037    0.3165    0.2571 C   0  0  0  0  0  0  0  0  0  0  0  0
    3.1731   -0.6008    0.5883 C   0  0  0  0  0  0  0  0  0  0  0  0
   -2.3088   -1.2528   -0.8164 H   0  0  0  0  0  0  0  0  0  0  0  0
   -3.4604   -0.1263   -0.4264 H   0  0  0  0  0  0  0  0  0  0  0  0
   -3.2797   -1.4879    0.5033 H   0  0  0  0  0  0  0  0  0  0  0  0
   -1.0646   -0.7655    1.2292 H   0  0  0  0  0  0  0  0  0  0  0  0
   -2.3123    0.3604    1.6895 H   0  0  0  0  0  0  0  0  0  0  0  0
   -0.4488    1.6451    0.7846 H   0  0  0  0  0  0  0  0  0  0  0  0
   -1.8000    1.7784   -0.3000 H   0  0  0  0  0  0  0  0  0  0  0  0
    0.2486    1.4577   -1.5980 H   0  0  0  0  0  0  0  0  0  0  0  0
   -0.8003    0.0912   -1.8254 H   0  0  0  0  0  0  0  0  0  0  0  0
    1.4888   -0.7075   -1.5621 H   0  0  0  0  0  0  0  0  0  0  0  0
    0.5740   -1.2386   -0.1851 H   0  0  0  0  0  0  0  0  0  0  0  0
    1.5150    0.6404    1.1832 H   0  0  0  0  0  0  0  0  0  0  0  0
    2.3724    1.2376   -0.2104 H   0  0  0  0  0  0  0  0  0  0  0  0
    3.8967   -0.1170    1.2465 H   0  0  0  0  0  0  0  0  0  0  0  0
    3.7035   -0.9052   -0.3146 H   0  0  0  0  0  0  0  0  0  0  0  0
    2.8324   -1.5095    1.0859 H   0  0  0  0  0  0  0  0  0  0  0  0
  1  2  1  0  0  0  0
  2  3  1  0  0  0  0
  3  4  1  0  0  0  0
  4  5  1  0  0  0  0
  5  6  1  0  0  0  0
  6  7  1  0  0  0  0
  1  8  1  0  0  0  0
  1  9  1  0  0  0  0
  1 10  1  0  0  0  0
  2 11  1  0  0  0  0
  2 12  1  0  0  0  0
  3 13  1  0  0  0  0
  3 14  1  0  0  0  0
  4 15  1  0  0  0  0
  4 16  1  0  0  0  0
  5 17  1  0  0  0  0
  5 18  1  0  0  0  0
  6 19  1  0  0  0  0
  6 20  1  0  0  0  0
  7 21  1  0  0  0  0
  7 22  1  0  0  0  0
  7 23  1  0  0  0  0
M  CHG  1   1   1
M  END
