28
2.345
N           -2.65245   1.04917   0.05402
C           -1.89208  -0.21237  -0.15482
C           -0.39009   0.02069  -0.36668
C            0.33012  -1.27919  -0.80143
C            1.83117  -1.04252  -1.03230
C            2.50897  -0.46249   0.22364
C            3.98768  -0.23258  -0.00755
O            4.64658  -1.18013  -0.71220
O            4.53274   0.75314   0.44246
C            1.79783   0.83351   0.66013
C            0.29528   0.60539   0.89179
Cl          -6.06054   0.39503   0.34087
H           -3.66950   0.87481   0.13876
H           -2.51256   1.70050  -0.73348
H           -2.35160   1.53679   0.91626
H           -2.30415  -0.74475  -1.02024
H           -2.03722  -0.88165   0.70000
H           -0.27276   0.75526  -1.17868
H           -0.14503  -1.69579  -1.69827
H            0.19340  -2.03511  -0.02004
H            1.97540  -0.34132  -1.86170
H            2.34140  -1.96446  -1.33902
H            2.41697  -1.19722   1.03716
H            5.57994  -0.89545  -0.76165
H            1.94663   1.58935  -0.11878
H            2.28720   1.24175   1.55360
H           -0.19432   1.53748   1.19860
H            0.15229  -0.08976   1.72645
