39
0.0
N            1.31419   0.65433   1.89873
C            2.66617   1.18470   1.56673
C            2.63399   2.12276   0.35726
C            2.55806   1.39684  -1.00545
C            1.16178   1.25378  -1.61927
N            0.25845   0.32247  -0.92678
C            0.26861  -1.12371  -1.26970
C           -1.06128  -1.65931  -0.61099
C           -0.83840  -2.53919   0.58222
C            0.36111  -2.98865   0.94434
C            1.54958  -2.66805   0.19317
C            1.51930  -1.82546  -0.83379
C           -0.99443   0.72044  -0.42554
C           -1.81207  -0.40111  -0.23725
C           -3.09989  -0.25416   0.22834
C           -3.57212   1.01476   0.51279
C           -2.76437   2.12548   0.33287
C           -1.47554   1.99122  -0.13601
H            1.34300  -0.19564   2.47973
H            0.84748   0.43989   0.99628
H            0.73866   1.36013   2.37804
H            3.35152   0.35378   1.36418
H            3.07459   1.69228   2.44902
H            3.52946   2.75743   0.38062
H            1.79324   2.81709   0.45367
H            3.01851   0.40937  -0.91098
H            3.19375   1.92807  -1.72615
H            1.23406   0.90997  -2.65525
H            0.67691   2.23121  -1.67126
H            0.18120  -1.18825  -2.36490
H           -1.64175  -2.21809  -1.35872
H           -1.69873  -2.78708   1.18281
H            0.45725  -3.61559   1.81594
H            2.47577  -3.14587   0.46763
H            2.42069  -1.64216  -1.39384
H           -3.72324  -1.12092   0.36348
H           -4.57829   1.13926   0.87773
H           -3.14874   3.10629   0.56072
H           -0.84717   2.85293  -0.27061
