39
 xtb: 6.5.1 (fef0646)
N            1.30545322243270        0.58729085199876        1.82284674855283
C            2.66402924365672        1.14194236737045        1.56048042386335
C            2.65541564006423        2.10111671058796        0.36705139868967
C            2.56465427760026        1.39407374056402       -1.00455597361124
C            1.15915348992283        1.26261875869701       -1.59651384830848
N            0.26919823409360        0.33035207544822       -0.87822378482175
C            0.26470039390048       -1.11129441021206       -1.25951510730218
C           -1.05658014310737       -1.65345948891535       -0.59165329888021
C           -0.81444635902733       -2.50659302033225        0.61805728269049
C            0.39261294239666       -2.94374432269244        0.97145929951499
C            1.56752740555168       -2.64576074472735        0.18868353826545
C            1.51919226533298       -1.82349802205196       -0.85445821373700
C           -1.00683219221098        0.72739956165044       -0.41821839542414
C           -1.81989968235166       -0.39704610107241       -0.23744199852225
C           -3.11294349250380       -0.25459086525006        0.21668237377319
C           -3.59297626048060        1.01320859122645        0.49137805088569
C           -2.78935033797543        2.12753380828245        0.31390749772782
C           -1.49495034292852        1.99686320343976       -0.14046001180352
H            1.33543788994342       -0.22060509618698        2.44909829138389
H            0.85587244434878        0.43312944917138        0.96396555955891
H            0.73051741818136        1.33540909753205        2.36014301660760
H            3.35529083147323        0.34477825596933        1.36304985847404
H            3.06502000913833        1.67625924509308        2.45337376460790
H            3.53926649855952        2.74586263220039        0.38630896282068
H            1.80325745243313        2.81511184759542        0.45901203913182
H            3.02024351402740        0.40790805084550       -0.91604135333854
H            3.19332378969467        1.92981879213428       -1.72602938960083
H            1.22624185339235        0.91414066376804       -2.64973988721710
H            0.67728109532613        2.23451581551816       -1.66009079375621
H            0.17417487650740       -1.17760445212922       -2.36187080195104
H           -1.63868318777724       -2.22268289036493       -1.34966126003071
H           -1.68888838291613       -2.77512016944249        1.19844012050082
H            0.47075880375450       -3.59688160367916        1.82744699428470
H            2.48138119169947       -3.14085681662472        0.46223220434302
H            2.41663214426184       -1.64704171980927       -1.40794040154588
H           -3.72602005855531       -1.12177813370449        0.35987699764081
H           -4.58530242857056        1.13788495078474        0.86918609486642
H           -3.15792512640132        3.10656780472266        0.55319520606287
H           -0.85306160069628        2.85503049519666       -0.26988437380867
