16
0.367
N           -1.28007   1.83877   0.55923
C           -0.12546   1.78602  -0.37710
C            0.70903   0.57489  -0.17736
C            0.24913  -0.70112  -0.15730
C            1.27102  -1.67364   0.05413
C            2.50078  -1.12998   0.19302
S            2.43108   0.59118   0.06720
Cl          -3.22428  -1.00585  -0.15023
H           -1.84272   2.69750   0.44132
H           -0.95755   1.80253   1.53821
H           -1.90724   1.02619   0.41106
H            0.49932   2.67774  -0.24821
H           -0.48132   1.81429  -1.41374
H           -0.79494  -0.95027  -0.27722
H            1.07720  -2.73600   0.10001
H            3.40979  -1.67822   0.36033
