29
0.0
N            3.60795  -1.25605   0.52781
C            3.26488  -0.44675  -0.67595
C            2.74309   0.94533  -0.33249
C            1.42776   0.95262   0.45185
C            0.24026   0.36993  -0.31732
C           -1.08167   0.47044   0.44743
C           -2.27020  -0.11619  -0.31704
C           -3.59335  -0.01126   0.44513
C           -4.77063  -0.60129  -0.31659
H            4.00953  -2.17091   0.27071
H            2.78082  -1.43872   1.11441
H            4.30245  -0.76968   1.11377
H            2.52929  -0.98822  -1.28123
H            4.15728  -0.36557  -1.31027
H            2.61312   1.52928  -1.25205
H            3.51421   1.47663   0.23893
H            1.18411   1.97997   0.75043
H            1.55446   0.40949   1.39469
H            0.43532  -0.67870  -0.56678
H            0.14337   0.88123  -1.28196
H           -1.28523   1.51960   0.69087
H           -0.98410  -0.03324   1.41596
H           -2.06895  -1.16635  -0.55770
H           -2.36602   0.38553  -1.28688
H           -3.79142   1.04141   0.68295
H           -3.49083  -0.50778   1.41816
H           -4.61360  -1.66004  -0.53024
H           -4.91625  -0.09689  -1.27338
H           -5.70458  -0.51591   0.24343
