29
0.621
N            3.30157  -1.40436  -0.59302
C            2.86347  -0.76850   0.68218
C            2.59761   0.72744   0.54231
C            1.41453   1.07817  -0.36516
C            0.05430   0.64115   0.18476
C           -1.11714   1.08527  -0.69510
C           -2.49738   0.76184  -0.11249
C           -2.81186  -0.73397  -0.03995
C           -4.21052  -1.02175   0.48605
H            2.57404  -1.34493  -1.32043
H            3.52650  -2.40267  -0.46430
H            4.14693  -0.94516  -0.96283
H            3.63644  -0.94142   1.44249
H            1.96962  -1.27909   1.05714
H            3.50767   1.20831   0.16291
H            2.43023   1.16991   1.53211
H            1.56540   0.64241  -1.35864
H            1.39228   2.16212  -0.53464
H           -0.07599   1.04639   1.19480
H            0.03484  -0.44672   0.30625
H           -1.02234   0.62939  -1.68728
H           -1.03648   2.16548  -0.86941
H           -3.27511   1.25637  -0.70782
H           -2.58323   1.20096   0.88815
H           -2.06820  -1.23640   0.58992
H           -2.68947  -1.17737  -1.03603
H           -4.41949  -2.09291   0.53024
H           -4.97363  -0.56670  -0.14783
H           -4.34598  -0.62038   1.49196
