23
 xtb: 6.5.1 (fef0646)
N           -2.53527665367175       -0.83303032575024        0.83414872655087
C           -1.71400086142679       -0.02646235841386       -0.11768580316559
C           -0.26242791447813       -0.06922473294649        0.19177371165201
C            0.66495243791280        0.42273276952914       -0.63320426796349
C            2.10431901761089        0.40767422406648       -0.35484507035792
C            2.67794581489870       -0.56782914883192        0.45952494871006
C            4.03635673120777       -0.57568599458233        0.70113924276507
C            4.84654943615204        0.39026659256233        0.13720050100250
C            4.29594725135252        1.36287292782026       -0.67400949870021
C            2.93909502775062        1.36991254250697       -0.92198301043974
Cl          -5.81891392560492       -0.58774189242960        0.04438623793832
H           -3.53359265980842       -0.77876871064236        0.61874627002934
H           -2.39522743106020       -0.49264631452116        1.80059086005380
H           -2.25327200013592       -1.82920200118830        0.82221526556222
H           -2.02964676755473        1.00519364143258       -0.11317642606912
H           -1.88176523282962       -0.39827261180280       -1.14514283675977
H            0.04816851951638       -0.60943925293592        1.07876542018073
H            0.35020875649543        0.97911584721257       -1.48454990456257
H            2.06958808414059       -1.31130579135475        0.91931837604270
H            4.48475807834131       -1.32573380301589        1.33646121207887
H            5.92639873381629        0.37537287577556        0.30085941946854
H            4.94217174867498        2.09966063251806       -1.15023790319647
H            2.51935784329235        2.12631755021007       -1.55860488321711
