23
 xtb: 6.5.1 (fef0646)
N           -2.57269370832085       -0.82409321198929        0.80686476498777
C           -1.72002622745841       -0.02699933684727       -0.12656925012433
C           -0.26934428586254       -0.09009403909719        0.18923729148228
C            0.66189213152232        0.43575731641878       -0.60589336137775
C            2.10351787969118        0.41269180736911       -0.33824797495789
C            2.68322576336290       -0.55869679476460        0.47679824950447
C            4.04435849987244       -0.57083837469102        0.70279664694437
C            4.85299886124050        0.38587054796162        0.12189652141945
C            4.29703437303675        1.35504290768730       -0.68961403069041
C            2.93737876544851        1.36699274729737       -0.92063813962762
Cl          -5.79077161402899       -0.59189142726800        0.05386725788761
H           -3.54531595134531       -0.77157370296845        0.60739413361233
H           -2.40780674067129       -0.49240800884342        1.79431423992549
H           -2.26821097129776       -1.82806999599020        0.81487963082016
H           -2.02701821230531        1.00634138939521       -0.11574981467943
H           -1.88181975910293       -0.39633480709238       -1.14885824203600
H            0.04433675201448       -0.62869136907533        1.07046044686123
H            0.34902070289239        0.99488990896197       -1.46880835051794
H            2.07187972222102       -1.30653587185370        0.92889784807578
H            4.48806479376785       -1.32339443971180        1.33739719300618
H            5.92886180491542        0.37282748673507        0.29269901869137
H            4.94181570677737        2.09544292699506       -1.15880717943567
H            2.51798234295101        2.12473030761141       -1.55853837599391
