 xtb: 6.5.1 (fef0646)
          01242316563D

 23 22  0     0  0            999 V2000
   -2.5221   -0.8349    0.8408 N   0  0  0  0  0  0  0  0  0  0  0  0
   -1.6991   -0.0482   -0.1259 C   0  0  0  0  0  0  0  0  0  0  0  0
   -0.2464   -0.1219    0.1682 C   0  0  0  0  0  0  0  0  0  0  0  0
    0.6774    0.4647   -0.5887 C   0  0  0  0  0  0  0  0  0  0  0  0
    2.1188    0.4239   -0.3336 C   0  0  0  0  0  0  0  0  0  0  0  0
    2.6980   -0.5467    0.4837 C   0  0  0  0  0  0  0  0  0  0  0  0
    4.0592   -0.5629    0.7057 C   0  0  0  0  0  0  0  0  0  0  0  0
    4.8701    0.3862    0.1154 C   0  0  0  0  0  0  0  0  0  0  0  0
    4.3158    1.3518   -0.7013 C   0  0  0  0  0  0  0  0  0  0  0  0
    2.9553    1.3703   -0.9252 C   0  0  0  0  0  0  0  0  0  0  0  0
   -5.9304   -0.5857    0.0344 Cl  0  0  0  0  0  0  0  0  0  0  0  0
   -3.5298   -0.7775    0.6221 H   0  0  0  0  0  0  0  0  0  0  0  0
   -2.3889   -0.4903    1.8010 H   0  0  0  0  0  0  0  0  0  0  0  0
   -2.2524   -1.8306    0.8268 H   0  0  0  0  0  0  0  0  0  0  0  0
   -2.0194    1.0006   -0.1180 H   0  0  0  0  0  0  0  0  0  0  0  0
   -1.8825   -0.4068   -1.1460 H   0  0  0  0  0  0  0  0  0  0  0  0
    0.0538   -0.6625    1.0482 H   0  0  0  0  0  0  0  0  0  0  0  0
    0.3512    1.0242   -1.4492 H   0  0  0  0  0  0  0  0  0  0  0  0
    2.0766   -1.3013    0.9342 H   0  0  0  0  0  0  0  0  0  0  0  0
    4.4919   -1.3200    1.3398 H   0  0  0  0  0  0  0  0  0  0  0  0
    5.9339    0.3720    0.2900 H   0  0  0  0  0  0  0  0  0  0  0  0
    4.9479    2.0924   -1.1647 H   0  0  0  0  0  0  0  0  0  0  0  0
    2.5236    2.1250   -1.5609 H   0  0  0  0  0  0  0  0  0  0  0  0
  1  2  1  0  0  0  0
  2  3  1  0  0  0  0
  3  4  2  0  0  0  0
  4  5  1  0  0  0  0
  5  6  4  0  0  0  0
  6  7  4  0  0  0  0
  7  8  4  0  0  0  0
  8  9  4  0  0  0  0
  5 10  4  0  0  0  0
  9 10  4  0  0  0  0
  1 12  1  0  0  0  0
  1 13  1  0  0  0  0
  1 14  1  0  0  0  0
  2 15  1  0  0  0  0
  2 16  1  0  0  0  0
  3 17  1  0  0  0  0
  4 18  1  0  0  0  0
  6 19  1  0  0  0  0
  7 20  1  0  0  0  0
  8 21  1  0  0  0  0
  9 22  1  0  0  0  0
 10 23  1  0  0  0  0
M  END
