23
1.415
N           -2.30528  -0.85527  -0.23768
C           -1.80812   0.54844  -0.14087
C           -0.36527   0.65959  -0.47736
C            0.59418   0.28882   0.36589
C            2.02979   0.34506   0.08027
C            2.91228  -0.46799   0.79105
C            4.26789  -0.42935   0.54129
C            4.77072   0.42444  -0.42043
C            3.91340   1.24178  -1.13044
C            2.55704   1.20468  -0.88316
Cl          -5.71157  -0.99533   0.58603
H           -1.78512  -1.47275   0.40022
H           -2.17916  -1.22124  -1.19090
H           -3.31090  -0.92658   0.00081
H           -1.97460   0.93080   0.87334
H           -2.40242   1.19777  -0.79613
H           -0.09638   0.99340  -1.46516
H            0.30599  -0.09532   1.32991
H            2.52021  -1.13568   1.53993
H            4.93623  -1.06679   1.09765
H            5.83077   0.45460  -0.61498
H            4.30591   1.91242  -1.87802
H            1.89709   1.85746  -1.42817
