23
 xtb: 6.5.1 (fef0646)
N           -2.24034585450344       -0.85577828034540       -0.24036433377839
C           -1.81176700498392        0.57015018400900       -0.13835199878786
C           -0.37033241452218        0.74135614889471       -0.46163853853215
C            0.59123667719709        0.24005858322193        0.32454935235621
C            2.02617979441951        0.32453149868427        0.05758530956191
C            2.91006209955963       -0.46863245922872        0.79142163048354
C            4.26934913639123       -0.41339490200039        0.56643917885186
C            4.77692169104901        0.43302883109344       -0.39934804681873
C            3.91970340222110        1.22935085565507       -1.13427988224882
C            2.56079471780037        1.18047121342185       -0.90695512869770
Cl          -5.76183293418315       -1.00955137672538        0.60390173832190
H           -1.76052646215568       -1.46628127854606        0.40017490424480
H           -2.15534448291475       -1.21941605405095       -1.19163349198194
H           -3.29062206614309       -0.93824150903506       -0.00201231503849
H           -1.98309864450408        0.93460276319969        0.87392722605078
H           -2.40944647170584        1.19715436697807       -0.79640068291034
H           -0.09965920598538        1.06404231350903       -1.44475130214325
H            0.30441525639257       -0.15333222431479        1.30041758629315
H            2.51886905119863       -1.13412760561317        1.54127351262844
H            4.93646481107809       -1.05677428338788        1.11135118834976
H            5.83331947640972        0.46015633334551       -0.60425298620776
H            4.30864447610419        1.90659916672883       -1.88066069593588
H            1.89983333151587        1.84573360363641       -1.44246034312387
