25
 xtb: 6.5.1 (fef0646)
N           -0.81502618719982       -1.02839961995860       -1.49830949639307
C           -0.93431783951787       -2.30178202868888       -0.73772534216000
C           -0.70207824610581       -2.12200283605403        0.76110828864604
C            0.75673519999924       -1.82578857186666        1.13408298275564
C            1.26903824961799       -0.51169898687639        0.61572244528234
C            2.26320353729942       -0.46594736207299       -0.35633074912664
C            2.67863151452547        0.74228001013276       -0.88147394814511
C            2.11348064056213        1.92109942914818       -0.43536330326685
C            1.13311083040421        1.89102149979677        0.53792343606050
C            0.71426302992984        0.68228158510883        1.05957130266639
Cl          -2.98884077177660        1.42368780572439        0.10113668336588
H           -1.01980691603445       -1.10649956384530       -2.49520359406718
H            0.08990429558410       -0.58220808254553       -1.36357991814659
H           -1.52280060900087       -0.30722102561885       -1.11197566026470
H           -0.21736182086974       -2.99904848431245       -1.14387299020392
H           -1.92740181031036       -2.72348675261964       -0.91934048755824
H           -1.04705966761598       -3.01515658913213        1.29157331995178
H           -1.34828161420929       -1.30470779580318        1.13545913790386
H            1.39191473338167       -2.63101831726638        0.77535926647368
H            0.86859479736367       -1.83193879251925        2.23367531235340
H            2.65265247821366       -1.38762294579985       -0.74211511104726
H            3.39496878496467        0.76262482755007       -1.67826805660143
H            2.42775671957106        2.86617760427840       -0.84602337151110
H            0.72540555467653        2.81645351449001        0.93075100579347
H           -0.01987435752175        0.66327066208180        1.85860459786567
