25
 xtb: 6.5.1 (fef0646)
N           -2.37801738629977        1.29222176062822       -0.93460308882193
C           -1.05478911456057        1.99621354967708       -0.94959350289723
C           -0.52193708025470        2.29335169253676        0.45030750891954
C           -0.13674031693540        1.03171787441167        1.23063350165910
C            0.97447037717549        0.25733331339103        0.58199360631646
C            2.28126342085368        0.71846577748420        0.64136129781288
C            3.30291402189704        0.02456551001600        0.02354386629165
C            3.03032189457876       -1.14012423996928       -0.66531617795372
C            1.73374781044701       -1.60745415387837       -0.73735864173111
C            0.71517376479797       -0.91144505556568       -0.11905399246491
Cl          -2.57010671924561       -1.68100722554323        0.25332122079485
H           -2.34156374651528        0.44524217642523       -0.54994140170555
H           -2.72449046654389        1.28337602924664       -1.93298512927524
H           -3.05166875074225        1.94683910513446       -0.44156871430908
H           -1.08165289078494        2.98873052282018       -1.51682979900795
H           -0.30411934251307        1.42672287740202       -1.50247047562810
H           -1.26523369474144        2.87982453146038        1.01180538932059
H            0.37193816364413        2.96129636626965        0.41376495952768
H           -1.03133088365846        0.39286768027633        1.31198831591800
H            0.14156159006902        1.27358377691203        2.25042803976191
H            2.48075723104270        1.63420413458584        1.16709782442798
H            4.30590876365197        0.39771196393069        0.07465061819144
H            3.82268763978768       -1.68308883206473       -1.14466713468544
H            1.51347474797424       -2.52277295699790       -1.26836110000237
H           -0.30305201324928       -1.28355364605422       -0.16682337722140
