25

N          1.26227       -0.13033        0.17601
C          2.71322       -0.08997        0.09401
C          3.19895       -0.01414       -1.32553
C          3.44203       -1.17701       -2.06410
C          3.82888       -1.09155       -3.40393
C          3.32992        1.23207       -1.95605
C          3.71234        1.33107       -3.30371
C          3.96759        0.15227       -4.03689
C          4.34177        0.24985       -5.38732
C          4.45761        1.49549       -6.00581
C          4.20235        2.65644       -5.28330
C          3.83046        2.57655       -3.94142
Cl        -0.71291        1.17183       -1.38195
H          0.83364       -0.13374        1.10039
H          0.82301       -0.85857       -0.40286
H          0.81100        0.69334       -0.31314
H          3.08732       -0.99523        0.58267
H          3.05755        0.76610        0.67788
H          3.32185       -2.16151       -1.61814
H          4.00154       -2.01025       -3.96292
H          3.10370        2.14481       -1.40586
H          4.53295       -0.64668       -5.97216
H          4.73768        1.55678       -7.05484
H          4.27837        3.62854       -5.76898
H          3.61875        3.49610       -3.40028
