49
0.0
N            6.38774  -3.21069  -0.34036
C            7.39140  -2.40795   0.41674
C            7.64943  -1.03543  -0.20814
C            6.49942  -0.09304  -0.09453
C            6.58595   1.26158   0.02810
C            5.33265   1.92021   0.10020
C            4.25407   1.07425   0.03169
C            2.86891   1.43790   0.07560
C            2.34562   2.70552   0.18656
C            0.93289   2.77180   0.20405
C            0.23749   4.08308   0.32396
C            0.32473   1.52293   0.10239
C           -1.06760   1.13882   0.07742
C           -2.13476   2.04315   0.14533
C           -3.45965   1.64683   0.12156
C           -3.84889   0.30760   0.02466
C           -5.24307  -0.10726   0.02598
C           -6.33763   0.56552  -0.48634
C           -6.28855   1.86238  -1.21729
C           -7.56296  -0.12820  -0.27306
C           -7.42578  -1.31442   0.36466
S           -5.77720  -1.61303   0.72175
C           -2.80481  -0.66080  -0.03869
N           -2.94300  -1.98088  -0.15001
S           -1.45600  -2.65368  -0.20561
N           -0.57698  -1.27974  -0.10383
C           -1.41363  -0.24554  -0.01864
S            1.56375   0.31060  -0.00478
S            4.83510  -0.55683  -0.12101
H            5.49735  -2.69990  -0.40480
H            6.19946  -4.12157   0.10702
H            6.70876  -3.39299  -1.30356
H            8.32603  -2.97923   0.48078
H            7.04980  -2.27835   1.45067
H            7.89919  -1.15940  -1.26728
H            8.52969  -0.57202   0.25291
H            7.52983   1.78553   0.06232
H            5.23572   2.99097   0.19892
H            2.96518   3.58589   0.25515
H            0.95804   4.89806   0.40254
H           -0.38445   4.11758   1.21889
H           -0.37875   4.28287  -0.55320
H           -1.92675   3.09337   0.22622
H           -4.22625   2.39546   0.22571
H           -7.11231   1.93681  -1.92768
H           -5.36147   1.96038  -1.78325
H           -6.36869   2.70353  -0.52806
H           -8.51514   0.26134  -0.60250
H           -8.22489  -1.98777   0.61504
