49
 xtb: 6.5.1 (fef0646)
N           -8.57323502791450       -1.51860857426894        0.20901147046601
C           -8.71349981106074       -0.29337636130006       -0.63361824368829
C           -8.07621701845796        0.94485739327503        0.00170974093352
C           -6.58574895433891        0.91397178970711        0.00813987941707
C           -5.76449096932630        2.00019396295239       -0.04069593963250
C           -4.38426549703246        1.68507115439224       -0.02303492258469
C           -4.11845758513251        0.34112445897954        0.04520859967679
C           -2.82262483740660       -0.26045877668761        0.08167729715980
C           -2.55361819423801       -1.60194842291355        0.21078617878692
C           -1.18377169023008       -1.94163271632381        0.23371265536611
C           -0.76468991297892       -3.36401387608549        0.37623004863006
C           -0.34138487433106       -0.83836774831380        0.11742966078645
C            1.09612002496732       -0.73793555790881        0.09674210106174
C            1.95400346349566       -1.83720481421034        0.20152340202530
C            3.33024665327785       -1.72120507085576        0.17522815837504
C            3.98203151104098       -0.49485090208167        0.03801366656473
C            5.42987376061801       -0.38591753507848        0.02749897813211
C            6.34350022661493       -1.27267044259200       -0.50933396271428
C            5.99988017626265       -2.51455263092489       -1.25673865998262
C            7.69186267155780       -0.87115876247814       -0.30386249000781
C            7.82792208106475        0.30427908102002        0.35198168429870
S            6.28845559966724        0.95964481253875        0.73477767289435
C            3.15811250476618        0.66468559585704       -0.05861256060640
N            3.56710708834810        1.92441838040712       -0.21187851092520
S            2.25170918623068        2.88234482698294       -0.29364866730591
N            1.11135262352051        1.72558773071780       -0.15196066600705
C            1.71959654487536        0.54438585313161       -0.03395573973677
S           -1.32047251357151        0.59349117986814       -0.02297551793777
S           -5.62667088228412       -0.53179392780254        0.03667156385532
H           -8.94793767943034       -2.35059797332972       -0.28101282913094
H           -9.04768755584291       -1.42443604430534        1.09928983591526
H           -7.57502209689889       -1.69043249016046        0.38687049352288
H           -9.79385150425230       -0.10759597774751       -0.79670107577443
H           -8.28824318896842       -0.45070976893366       -1.61798120655919
H           -8.41803589795700        1.04448240008864        1.04591620986393
H           -8.40890473622379        1.85305898831169       -0.50189063581463
H           -6.13710213717860        3.00555773398672       -0.15558204696820
H           -3.60562241961020        2.42500962354255       -0.12394795498971
H           -3.33720051278704       -2.33828273166208        0.28438184838292
H           -0.18017349092405       -3.68453711873865       -0.50300639950308
H           -1.63371843972767       -4.02048058681769        0.41681747978761
H           -0.18609281566795       -3.52186319005278        1.27061034935155
H            1.53869630111031       -2.81851080957964        0.31761742470512
H            3.92842047533750       -2.60500747168839        0.30789622377936
H            5.93519768433071       -3.36756835334771       -0.59490213125314
H            6.75749239701963       -2.72940021951649       -2.01495168370732
H            5.04753046330433       -2.40215124830613       -1.78547305215137
H            8.52918354171576       -1.45477009960591       -0.65549313615754
H            8.75919403041279        0.77500949264893        0.60361822843679
