 xtb: 6.5.1 (fef0646)
          02032319413D

 49 53  0     0  0            999 V2000
   -8.5681   -1.5238    0.1904 N   0  0  0  0  0  0  0  0  0  0  0  0
   -8.7299   -0.2834   -0.6236 C   0  0  0  0  0  0  0  0  0  0  0  0
   -8.0748    0.9439    0.0153 C   0  0  0  0  0  0  0  0  0  0  0  0
   -6.5855    0.9111   -0.0022 C   0  0  0  0  0  0  0  0  0  0  0  0
   -5.7650    1.9934   -0.1009 C   0  0  0  0  0  0  0  0  0  0  0  0
   -4.3847    1.6794   -0.0808 C   0  0  0  0  0  0  0  0  0  0  0  0
   -4.1180    0.3400    0.0372 C   0  0  0  0  0  0  0  0  0  0  0  0
   -2.8220   -0.2603    0.0829 C   0  0  0  0  0  0  0  0  0  0  0  0
   -2.5530   -1.6023    0.2061 C   0  0  0  0  0  0  0  0  0  0  0  0
   -1.1832   -1.9422    0.2259 C   0  0  0  0  0  0  0  0  0  0  0  0
   -0.7642   -3.3660    0.3532 C   0  0  0  0  0  0  0  0  0  0  0  0
   -0.3409   -0.8382    0.1169 C   0  0  0  0  0  0  0  0  0  0  0  0
    1.0965   -0.7376    0.0975 C   0  0  0  0  0  0  0  0  0  0  0  0
    1.9544   -1.8369    0.2022 C   0  0  0  0  0  0  0  0  0  0  0  0
    3.3307   -1.7209    0.1754 C   0  0  0  0  0  0  0  0  0  0  0  0
    3.9822   -0.4944    0.0391 C   0  0  0  0  0  0  0  0  0  0  0  0
    5.4302   -0.3855    0.0281 C   0  0  0  0  0  0  0  0  0  0  0  0
    6.3430   -1.2700   -0.5136 C   0  0  0  0  0  0  0  0  0  0  0  0
    5.9978   -2.5078   -1.2669 C   0  0  0  0  0  0  0  0  0  0  0  0
    7.6917   -0.8702   -0.3068 C   0  0  0  0  0  0  0  0  0  0  0  0
    7.8286    0.3016    0.3553 C   0  0  0  0  0  0  0  0  0  0  0  0
    6.2904    0.9536    0.7463 S   0  0  0  0  0  0  0  0  0  0  0  0
    3.1584    0.6653   -0.0561 C   0  0  0  0  0  0  0  0  0  0  0  0
    3.5674    1.9252   -0.2077 N   0  0  0  0  0  0  0  0  0  0  0  0
    2.2521    2.8835   -0.2863 S   0  0  0  0  0  0  0  0  0  0  0  0
    1.1117    1.7262   -0.1484 N   0  0  0  0  0  0  0  0  0  0  0  0
    1.7199    0.5449   -0.0318 C   0  0  0  0  0  0  0  0  0  0  0  0
   -1.3197    0.5948   -0.0112 S   0  0  0  0  0  0  0  0  0  0  0  0
   -5.6243   -0.5262    0.1223 S   0  0  0  0  0  0  0  0  0  0  0  0
   -8.9762   -2.3441   -0.2740 H   0  0  0  0  0  0  0  0  0  0  0  0
   -9.0138   -1.4195    1.1094 H   0  0  0  0  0  0  0  0  0  0  0  0
   -7.5718   -1.7094    0.3487 H   0  0  0  0  0  0  0  0  0  0  0  0
   -9.7998   -0.1031   -0.7836 H   0  0  0  0  0  0  0  0  0  0  0  0
   -8.3018   -0.4432   -1.6197 H   0  0  0  0  0  0  0  0  0  0  0  0
   -8.4128    1.0405    1.0518 H   0  0  0  0  0  0  0  0  0  0  0  0
   -8.4101    1.8549   -0.4932 H   0  0  0  0  0  0  0  0  0  0  0  0
   -6.1375    3.0026   -0.1839 H   0  0  0  0  0  0  0  0  0  0  0  0
   -3.6059    2.4226   -0.1505 H   0  0  0  0  0  0  0  0  0  0  0  0
   -3.3370   -2.3386    0.2815 H   0  0  0  0  0  0  0  0  0  0  0  0
   -0.1785   -3.6818   -0.5098 H   0  0  0  0  0  0  0  0  0  0  0  0
   -1.6336   -4.0214    0.4063 H   0  0  0  0  0  0  0  0  0  0  0  0
   -0.1875   -3.5258    1.2643 H   0  0  0  0  0  0  0  0  0  0  0  0
    1.5388   -2.8184    0.3180 H   0  0  0  0  0  0  0  0  0  0  0  0
    3.9286   -2.6049    0.3076 H   0  0  0  0  0  0  0  0  0  0  0  0
    5.9350   -3.3667   -0.5992 H   0  0  0  0  0  0  0  0  0  0  0  0
    6.7564   -2.7262   -2.0187 H   0  0  0  0  0  0  0  0  0  0  0  0
    5.0466   -2.3994   -1.7876 H   0  0  0  0  0  0  0  0  0  0  0  0
    8.5290   -1.4541   -0.6572 H   0  0  0  0  0  0  0  0  0  0  0  0
    8.7595    0.7736    0.6055 H   0  0  0  0  0  0  0  0  0  0  0  0
  1  2  1  0  0  0  0
  2  3  1  0  0  0  0
  3  4  1  0  0  0  0
  4  5  2  0  0  0  0
  5  6  4  0  0  0  0
  6  7  2  0  0  0  0
  7  8  1  0  0  0  0
  8  9  4  0  0  0  0
  9 10  4  0  0  0  0
 10 11  1  0  0  0  0
 10 12  4  0  0  0  0
 12 13  1  0  0  0  0
 13 14  4  0  0  0  0
 14 15  4  0  0  0  0
 15 16  4  0  0  0  0
 16 17  1  0  0  0  0
 17 18  4  0  0  0  0
 18 19  1  0  0  0  0
 18 20  4  0  0  0  0
 20 21  2  0  0  0  0
 17 22  1  0  0  0  0
 21 22  1  0  0  0  0
 16 23  1  0  0  0  0
 23 24  4  0  0  0  0
 24 25  2  0  0  0  0
 25 26  2  0  0  0  0
 13 27  1  0  0  0  0
 23 27  1  0  0  0  0
 26 27  4  0  0  0  0
  8 28  1  0  0  0  0
 12 28  1  0  0  0  0
  4 29  1  0  0  0  0
  7 29  1  0  0  0  0
  1 30  1  0  0  0  0
  1 31  1  0  0  0  0
  1 32  1  0  0  0  0
  2 33  1  0  0  0  0
  2 34  1  0  0  0  0
  3 35  1  0  0  0  0
  3 36  1  0  0  0  0
  5 37  1  0  0  0  0
  6 38  1  0  0  0  0
  9 39  1  0  0  0  0
 11 40  1  0  0  0  0
 11 41  1  0  0  0  0
 11 42  1  0  0  0  0
 14 43  1  0  0  0  0
 15 44  1  0  0  0  0
 19 45  1  0  0  0  0
 19 46  1  0  0  0  0
 19 47  1  0  0  0  0
 20 48  1  0  0  0  0
 21 49  1  0  0  0  0
M  CHG  1   1   1
M  END
