 xtb: 6.5.1 (fef0646)
          01242315073D

 23 22  0     0  0            999 V2000
    1.6644    1.1735    0.3941 N   0  0  0  0  0  0  0  0  0  0  0  0
    2.6089    0.1322   -0.0699 C   0  0  0  0  0  0  0  0  0  0  0  0
    3.0978   -0.6697    1.0925 C   0  0  0  0  0  0  0  0  0  0  0  0
    4.3620   -1.0528    1.2519 C   0  0  0  0  0  0  0  0  0  0  0  0
    4.8928   -1.8615    2.3408 C   0  0  0  0  0  0  0  0  0  0  0  0
    6.2128   -2.3112    2.2656 C   0  0  0  0  0  0  0  0  0  0  0  0
    6.7610   -3.0836    3.2716 C   0  0  0  0  0  0  0  0  0  0  0  0
    6.0024   -3.4186    4.3811 C   0  0  0  0  0  0  0  0  0  0  0  0
    4.6929   -2.9738    4.4736 C   0  0  0  0  0  0  0  0  0  0  0  0
    4.1419   -2.2051    3.4666 C   0  0  0  0  0  0  0  0  0  0  0  0
   -0.5234   -0.1029    2.1109 Cl  0  0  0  0  0  0  0  0  0  0  0  0
    1.2361    1.6707   -0.3897 H   0  0  0  0  0  0  0  0  0  0  0  0
    2.1347    1.8387    1.0129 H   0  0  0  0  0  0  0  0  0  0  0  0
    0.8933    0.7292    0.9571 H   0  0  0  0  0  0  0  0  0  0  0  0
    3.4413    0.5948   -0.6021 H   0  0  0  0  0  0  0  0  0  0  0  0
    2.0726   -0.5324   -0.7516 H   0  0  0  0  0  0  0  0  0  0  0  0
    2.3227   -0.9439    1.7943 H   0  0  0  0  0  0  0  0  0  0  0  0
    5.0944   -0.7688    0.5063 H   0  0  0  0  0  0  0  0  0  0  0  0
    6.8119   -2.0548    1.4038 H   0  0  0  0  0  0  0  0  0  0  0  0
    7.7825   -3.4256    3.1938 H   0  0  0  0  0  0  0  0  0  0  0  0
    6.4274   -4.0207    5.1703 H   0  0  0  0  0  0  0  0  0  0  0  0
    4.0973   -3.2288    5.3386 H   0  0  0  0  0  0  0  0  0  0  0  0
    3.1215   -1.8659    3.5607 H   0  0  0  0  0  0  0  0  0  0  0  0
  1  2  1  0  0  0  0
  2  3  1  0  0  0  0
  3  4  2  0  0  0  0
  4  5  1  0  0  0  0
  5  6  4  0  0  0  0
  6  7  4  0  0  0  0
  7  8  4  0  0  0  0
  8  9  4  0  0  0  0
  5 10  4  0  0  0  0
  9 10  4  0  0  0  0
  1 12  1  0  0  0  0
  1 13  1  0  0  0  0
  1 14  1  0  0  0  0
  2 15  1  0  0  0  0
  2 16  1  0  0  0  0
  3 17  1  0  0  0  0
  4 18  1  0  0  0  0
  6 19  1  0  0  0  0
  7 20  1  0  0  0  0
  8 21  1  0  0  0  0
  9 22  1  0  0  0  0
 10 23  1  0  0  0  0
M  END
