25
 xtb: 6.5.1 (fef0646)
N           -2.11948927759271       -0.88431681942618        0.29243860732361
C           -1.08431373308324       -0.29116178989812        1.19863597710829
C           -0.53361606951765        1.02812027636611        0.66053170483790
C            0.32290950562522        0.86424152685672       -0.59965991627421
C            1.57969536244771        0.07710610980982       -0.36212369161651
C            2.65489385011723        0.65701715396060        0.29565025230606
C            3.80536358974062       -0.06582241460440        0.54104647889927
C            3.89442229617641       -1.38157697086885        0.13338932305197
C            2.83028902270357       -1.97242706048961       -0.51734003701177
C            1.68026959776805       -1.24806549301737       -0.76170207953610
Cl          -4.41276152503821        1.19557481790083       -0.38735632398150
H           -2.81356745836197       -0.31963594563296        0.09400345637883
H           -2.42739528601825       -1.81744459545457        0.72942635993987
H           -1.59325331334456       -1.22773130608550       -0.58377771808880
H           -0.20391540654095       -0.97566764994804        1.40845548083367
H           -1.51591838905349       -0.13845439652443        2.19884599231661
H            0.05104555954854        1.54840729577024        1.42534274426464
H           -1.39100402636158        1.67601190557709        0.45063352501564
H            0.59344824155363        1.84669083296864       -1.00225878297908
H           -0.26261671247393        0.38227234230544       -1.39038256588553
H            2.58178466660150        1.68183135591933        0.61815755772708
H            4.63288628644362        0.39492174702766        1.05479707759912
H            4.79082570591151       -1.94906096709272        0.32571134433585
H            2.89561363732069       -3.00112325727087       -0.83682834313097
H            0.84915771387622       -1.70960698072636       -1.26863868010329
