 xtb: 6.5.1 (fef0646)
          01242317093D

 25 24  0     0  0            999 V2000
   -1.9962   -0.9922    0.3211 N   0  0  0  0  0  0  0  0  0  0  0  0
   -1.0324   -0.3052    1.2284 C   0  0  0  0  0  0  0  0  0  0  0  0
   -0.5357    1.0213    0.6610 C   0  0  0  0  0  0  0  0  0  0  0  0
    0.3218    0.8631   -0.5994 C   0  0  0  0  0  0  0  0  0  0  0  0
    1.5798    0.0774   -0.3632 C   0  0  0  0  0  0  0  0  0  0  0  0
    2.6543    0.6558    0.2970 C   0  0  0  0  0  0  0  0  0  0  0  0
    3.8040   -0.0683    0.5429 C   0  0  0  0  0  0  0  0  0  0  0  0
    3.8928   -1.3837    0.1340 C   0  0  0  0  0  0  0  0  0  0  0  0
    2.8296   -1.9730   -0.5198 C   0  0  0  0  0  0  0  0  0  0  0  0
    1.6807   -1.2473   -0.7648 C   0  0  0  0  0  0  0  0  0  0  0  0
   -4.5389    1.2971   -0.4283 Cl  0  0  0  0  0  0  0  0  0  0  0  0
   -2.7865   -0.3678    0.0953 H   0  0  0  0  0  0  0  0  0  0  0  0
   -2.3809   -1.8510    0.7406 H   0  0  0  0  0  0  0  0  0  0  0  0
   -1.5494   -1.2536   -0.5721 H   0  0  0  0  0  0  0  0  0  0  0  0
   -0.1804   -0.9654    1.4284 H   0  0  0  0  0  0  0  0  0  0  0  0
   -1.5103   -0.1418    2.2025 H   0  0  0  0  0  0  0  0  0  0  0  0
    0.0461    1.5558    1.4223 H   0  0  0  0  0  0  0  0  0  0  0  0
   -1.3979    1.6649    0.4484 H   0  0  0  0  0  0  0  0  0  0  0  0
    0.5922    1.8469   -1.0013 H   0  0  0  0  0  0  0  0  0  0  0  0
   -0.2625    0.3825   -1.3910 H   0  0  0  0  0  0  0  0  0  0  0  0
    2.5817    1.6813    0.6190 H   0  0  0  0  0  0  0  0  0  0  0  0
    4.6324    0.3938    1.0558 H   0  0  0  0  0  0  0  0  0  0  0  0
    4.7901   -1.9500    0.3261 H   0  0  0  0  0  0  0  0  0  0  0  0
    2.8954   -3.0011   -0.8382 H   0  0  0  0  0  0  0  0  0  0  0  0
    0.8499   -1.7088   -1.2713 H   0  0  0  0  0  0  0  0  0  0  0  0
  1  2  1  0  0  0  0
  2  3  1  0  0  0  0
  3  4  1  0  0  0  0
  4  5  1  0  0  0  0
  5  6  4  0  0  0  0
  6  7  4  0  0  0  0
  7  8  4  0  0  0  0
  8  9  4  0  0  0  0
  5 10  4  0  0  0  0
  9 10  4  0  0  0  0
  1 12  1  0  0  0  0
  1 13  1  0  0  0  0
  1 14  1  0  0  0  0
  2 15  1  0  0  0  0
  2 16  1  0  0  0  0
  3 17  1  0  0  0  0
  3 18  1  0  0  0  0
  4 19  1  0  0  0  0
  4 20  1  0  0  0  0
  6 21  1  0  0  0  0
  7 22  1  0  0  0  0
  8 23  1  0  0  0  0
  9 24  1  0  0  0  0
 10 25  1  0  0  0  0
M  END
