49
 xtb: 6.5.1 (fef0646)
N            6.38959066571012       -3.20897956373643       -0.34788576989041
C            7.40013462455210       -2.40948291652711        0.40364723131279
C            7.64995301507409       -1.03273032988022       -0.21597099682710
C            6.50000616753881       -0.09272473702723       -0.08585680889735
C            6.58603517128590        1.25937678750257        0.06504318562526
C            5.33246277316101        1.91731456331830        0.13812461084632
C            4.25404460426010        1.07332089533842        0.04208994703865
C            2.86873448256401        1.43726591298239        0.07708848392929
C            2.34503871409524        2.70781243747989        0.15280842512659
C            0.93234460605729        2.77396174796402        0.17102434015313
C            0.23688255727806        4.08880736233111        0.25203641176331
C            0.32454830320763        1.52197186686128        0.10486806032557
C           -1.06761917224225        1.13721409569157        0.08640523887511
C           -2.13475531211018        2.04104352267857        0.16205633397860
C           -3.45959131155211        1.64522229961390        0.13456531356398
C           -3.84940793847152        0.30666575207137        0.02858530057948
C           -5.24359841645626       -0.10712389134839        0.02582242243179
C           -6.33889149165356        0.57401417654988       -0.47453276249447
C           -6.29071755533327        1.87919771968773       -1.19090054088794
C           -7.56455901239214       -0.12048578773138       -0.26635863204732
C           -7.42699287898218       -1.31648138366153        0.35321247402630
S           -5.77791605542018       -1.62933368613678        0.68614442898364
C           -2.80529177982761       -0.66174552956547       -0.03588812520710
N           -2.94365137645703       -1.98167392122572       -0.14883982797850
S           -1.45700351855387       -2.65549085881505       -0.20137475018399
N           -0.57751851090123       -1.28123898086556       -0.09795548570710
C           -1.41398095737739       -0.24683908459060       -0.01293477382102
S            1.56405852020227        0.30466561780619        0.05601935599914
S            4.83583755151179       -0.55304036838728       -0.15717758310820
H            5.49664142868927       -2.70083662653931       -0.40097328895824
H            6.20355886477355       -4.12301763101673        0.10270613018415
H            6.70520821215020       -3.38865862357165       -1.30767383714030
H            8.32896507127915       -2.97939136970059        0.47321738953168
H            7.05540593584503       -2.28066590016245        1.44814514020454
H            7.89636852451917       -1.15686158177226       -1.27047629416138
H            8.53088651552376       -0.57166423307286        0.24898461392501
H            7.52985282070144        1.78450059163341        0.07871774570168
H            5.23558328647166        2.98951717096408        0.21623522876458
H            2.96494500554603        3.58726282344627        0.23686052462743
H            0.95791679061430        4.90099285647929        0.36815681716009
H           -0.37896500253067        4.12932243112738        1.20165110284482
H           -0.38455126477386        4.27395787928333       -0.57241601723603
H           -1.92673671913343        3.09247662279105        0.23471291533220
H           -4.22609625402845        2.39487911123449        0.23117579603670
H           -7.11360227413542        1.94412749633010       -1.91900533037502
H           -5.36264736966774        1.96665502218375       -1.77626023650924
H           -6.36837910614650        2.70630328003411       -0.51771376706999
H           -8.51573222457392        0.26531693359415       -0.59814870494332
H           -8.22524231666718       -1.98930493798035        0.60918002947919
