  37

 N         -4.8979989175        1.2656806868       -0.9360792483
 C         -3.6403217224        0.5346611330       -0.9996632497
 C         -3.2065065896        0.0081279320        0.3662169076
 O         -1.9374439712       -0.6333157211        0.3345237684
 C         -0.8376537426        0.2037793341        0.2679490033
 C          0.4341826622       -0.4189095633        0.1692634492
 C          0.5552166295       -1.8330070324        0.1380830998
 C          1.7635144287       -2.4375334084        0.0409215121
 C          1.6039993562        0.3703556650        0.0984013503
 C          1.5161718035        1.7818615815        0.1273473850
 C          0.2490729015        2.3708248950        0.2268599550
 C         -0.8867955545        1.6067687774        0.2948866678
 C          2.7144177659        2.5499483556        0.0540080296
 C          3.9262993413        1.9535736859       -0.0433681424
 C          4.0503372002        0.5309820159       -0.0763474217
 C          5.2861123965       -0.1112300643       -0.1786047161
 C          5.3657566355       -1.4886541193       -0.2083159166
 C          4.2266741633       -2.2635715200       -0.1373645623
 C          2.9655980399       -1.6715910064       -0.0341348827
 C          2.8766360169       -0.2584802552       -0.0037538374
 Cl        -6.9515872606       -1.1552581910        0.0762045232
 H         -5.1334291829        1.6571023242       -1.8428041677
 H         -4.8038344117        2.0526922352       -0.3037944181
 H         -6.1372974052       -0.1813048200       -0.3340075391
 H         -2.8504968468        1.1659493328       -1.4249576988
 H         -3.7451089725       -0.3080411617       -1.6923310022
 H         -3.9250209019       -0.7359845513        0.7267821244
 H         -3.1905710686        0.7963207049        1.1254860395
 H         -0.3476290835       -2.4165489340        0.1945723741
 H          1.8327938512       -3.5116234602        0.0187066798
 H          0.1784746842        3.4451334550        0.2499716754
 H         -1.8383271130        2.1003800025        0.3707205447
 H          2.6396311535        3.6238421609        0.0775573936
 H          4.8212304788        2.5495901825       -0.0979811017
 H          6.1815875298        0.4839850964       -0.2347300519
 H          6.3295632858       -1.9649171134       -0.2881154354
 H          4.2996404564       -3.3375435030       -0.1614156173
          37
        -58.25734360
 N         -4.5139291327       -1.7880830700       -0.0734519797
 C         -4.3812550797       -1.1086035863       -1.3488350626
 C         -3.2643878221       -0.0739514628       -1.2885851668
 O         -2.0322710735       -0.6926738970       -0.9593742641
 C         -0.9684881889        0.1749403108       -0.7845942268
 C          0.2811024767       -0.3986120923       -0.4324223659
 C          0.4239052264       -1.8019120883       -0.2711607461
 C          1.6124488484       -2.3573145182        0.0662513058
 C          1.4070620346        0.4320216548       -0.2348346283
 C          1.2962935456        1.8340805454       -0.3873985149
 C          0.0518125447        2.3727255390       -0.7385479667
 C         -1.0419748732        1.5691072641       -0.9308666216
 C          2.4502347029        2.6444498066       -0.1806814573
 C          3.6420253663        2.0968854244        0.1560599042
 C          3.7885713540        0.6852938540        0.3174305284
 C          5.0048658171        0.0931133946        0.6636678337
 C          5.1073898563       -1.2751967153        0.8111790464
 C          4.0106478219       -2.0900293761        0.6206101562
 C          2.7705634526       -1.5489711687        0.2728109667
 C          2.6586436111       -0.1455570142        0.1193317902
 Cl        -5.4958983791        0.7717734553        1.8154841119
 H         -3.5999477095       -2.1324781357        0.1969994333
 H         -5.1212843259       -2.5984329557       -0.1510591795
 H         -5.0976004352       -0.2588396333        1.0675990476
 H         -5.3368792184       -0.6380371941       -1.6126176808
 H         -4.1587188131       -1.8339478055       -2.1410746229
 H         -3.4844150150        0.6683536715       -0.5145877032
 H         -3.1452663001        0.4463432539       -2.2460520829
 H         -0.4449841738       -2.4180537516       -0.4261473952
 H          1.6992798106       -3.4239413990        0.1836848837
 H         -0.0358646490        3.4394122017       -0.8573602583
 H         -1.9779410351        2.0224188068       -1.2028798037
 H          2.3576278805        3.7107929513       -0.2980916129
 H          4.5036411702        2.7242993119        0.3081592039
 H          5.8672008679        0.7198915336        0.8149605228
 H          6.0557422772       -1.7122869508        1.0789534388
 H          4.1007588406       -3.1563499975        0.7396600226
