  12

 N         -1.5024241340       -0.0004042522       -0.1701651664
 C         -0.1628137550       -0.0002162149        0.4894911199
 C          0.9857449509        0.7560928335       -0.1366216603
 C          0.9862818747       -0.7550098941       -0.1371762011
 H         -2.0434556365        0.8326404145        0.1017507866
 H         -2.0431914940       -0.8336486485        0.1016746146
 H         -1.4190900699       -0.0003427577       -1.1959587043
 H         -0.2265018718       -0.0005835211        1.5867878031
 H          1.6873325970        1.2809999364        0.5156093836
 H          0.8058496652        1.2802752135       -1.0764951349
 H          1.6859506596       -1.2827457935        0.5148638948
 H          0.8076624819       -1.2772955010       -1.0783393378
          12
        -12.95001001
 N         -1.5028229553       -0.0001248440        0.1569484457
 C         -0.1594573170       -0.0001757074       -0.4953023404
 C          0.9872076730       -0.7554438432        0.1360177658
 C          0.9865159654        0.7557054931        0.1360397016
 H         -2.0420264831       -0.8332712813       -0.1180084390
 H         -2.0419683130        0.8334994510       -0.1168029450
 H         -1.4233313244       -0.0014066009        1.1829784953
 H         -0.2184699513       -0.0001438037       -1.5928385062
 H          1.6917116936       -1.2800807917       -0.5131659972
 H          0.8048126924       -1.2786130172        1.0757958474
 H          1.6897005875        1.2809861433       -0.5141155765
 H          0.8038210250        1.2797406819        1.0754352004
