18
 xtb: 6.5.1 (fef0646)
N            0.23299908424571       -1.20095542684874        0.40068506918062
C           -0.73391916693289       -0.18209255853520       -0.09376297970862
C           -2.16676551046013       -0.65859562889682        0.09553640813889
C           -3.21464628242865        0.31480775273107       -0.44914666131988
C           -3.24967189115547        1.63827907740657        0.29984942768621
Cl           3.76470298454569        0.10943884646618       -0.15040114378303
H            0.20827055885416       -2.05253383202141       -0.11980893116498
H            0.17681170584572       -1.35050090211857        1.38680529789863
H            1.27335430219595       -0.82171855959724        0.24570022931756
H           -0.52237834004246        0.05306558289016       -1.16234914506183
H           -0.54854419299708        0.79051570439574        0.41907372086397
H           -2.29980298542782       -0.83438977906202        1.16551423464306
H           -2.22719357124088       -1.64065680677815       -0.37651879658156
H           -4.17352952511741       -0.17737131544967       -0.40390137485749
H           -3.00098838945497        0.48207204265691       -1.51251829372969
H           -3.41229570932179        1.47520589080755        1.36803650750743
H           -4.03344653281747        2.27859835425474       -0.07140555562392
H           -2.29979388937700        2.18149577900010        0.20448958790159
