 xtb: 6.5.1 (fef0646)
          01232319353D

 25 26  0     0  0            999 V2000
    3.2143   -0.1937   -1.2113 N   0  0  0  0  0  0  0  0  0  0  0  0
    2.6617    1.0786   -0.6695 C   0  0  0  0  0  0  0  0  0  0  0  0
    3.0500    1.2114    0.8061 C   0  0  0  0  0  0  0  0  0  0  0  0
    4.5307    1.3141    0.9703 C   0  0  0  0  0  0  0  0  0  0  0  0
    5.2900    2.4096    1.2337 C   0  0  0  0  0  0  0  0  0  0  0  0
    6.6750    2.1483    1.2456 C   0  0  0  0  0  0  0  0  0  0  0  0
    6.9987    0.8459    0.9768 C   0  0  0  0  0  0  0  0  0  0  0  0
    8.2824    0.2309    0.8833 C   0  0  0  0  0  0  0  0  0  0  0  0
    9.5054    0.7775    1.1907 C   0  0  0  0  0  0  0  0  0  0  0  0
   10.5694   -0.1130    0.9694 C   0  0  0  0  0  0  0  0  0  0  0  0
   10.1612   -1.3212    0.4954 C   0  0  0  0  0  0  0  0  0  0  0  0
    8.4621   -1.4074    0.3133 S   0  0  0  0  0  0  0  0  0  0  0  0
    5.5509   -0.1010    0.7511 S   0  0  0  0  0  0  0  0  0  0  0  0
    3.1515   -0.2418   -2.2327 H   0  0  0  0  0  0  0  0  0  0  0  0
    2.7244   -0.9999   -0.8068 H   0  0  0  0  0  0  0  0  0  0  0  0
    4.2200   -0.2552   -0.9013 H   0  0  0  0  0  0  0  0  0  0  0  0
    1.5778    1.0840   -0.7862 H   0  0  0  0  0  0  0  0  0  0  0  0
    3.0860    1.9074   -1.2377 H   0  0  0  0  0  0  0  0  0  0  0  0
    2.6608    0.3590    1.3671 H   0  0  0  0  0  0  0  0  0  0  0  0
    2.5870    2.1133    1.2055 H   0  0  0  0  0  0  0  0  0  0  0  0
    4.8774    3.3850    1.4181 H   0  0  0  0  0  0  0  0  0  0  0  0
    7.4148    2.9022    1.4390 H   0  0  0  0  0  0  0  0  0  0  0  0
    9.6314    1.7744    1.5705 H   0  0  0  0  0  0  0  0  0  0  0  0
   11.5990    0.1320    1.1553 H   0  0  0  0  0  0  0  0  0  0  0  0
   10.7574   -2.1752    0.2426 H   0  0  0  0  0  0  0  0  0  0  0  0
  1  2  1  0  0  0  0
  2  3  1  0  0  0  0
  3  4  1  0  0  0  0
  4  5  2  0  0  0  0
  5  6  4  0  0  0  0
  6  7  2  0  0  0  0
  7  8  1  0  0  0  0
  8  9  4  0  0  0  0
  9 10  4  0  0  0  0
 10 11  2  0  0  0  0
  8 12  1  0  0  0  0
 11 12  1  0  0  0  0
  4 13  1  0  0  0  0
  7 13  1  0  0  0  0
  1 14  1  0  0  0  0
  1 15  1  0  0  0  0
  1 16  1  0  0  0  0
  2 17  1  0  0  0  0
  2 18  1  0  0  0  0
  3 19  1  0  0  0  0
  3 20  1  0  0  0  0
  5 21  1  0  0  0  0
  6 22  1  0  0  0  0
  9 23  1  0  0  0  0
 10 24  1  0  0  0  0
 11 25  1  0  0  0  0
M  CHG  1   1   1
M  END
