  40

 N         -7.0307857025        0.9486388267       -0.5643261129
 C         -7.3945417366       -0.3509934154       -0.0230724731
 C         -6.6347216853       -1.4979428132       -0.6950434544
 C         -5.1769554610       -1.4746530707       -0.3902167292
 C         -4.5523363521       -2.2646086610        0.5207262370
 C         -3.1544401822       -2.0412197563        0.6161199133
 C         -2.6901522201       -1.0707774180       -0.2247448107
 C         -1.3185348004       -0.6531747725       -0.3462161892
 C         -0.8531556738        0.3161826615       -1.1931161051
 C          0.5401174805        0.5253767532       -1.1157605902
 C          1.1746100218       -0.2793487306       -0.2072079773
 C          2.5838550205       -0.2775534667        0.0691376512
 C          3.2208439713       -1.0818204229        0.9764377236
 C          4.6147953725       -0.8741573797        1.0480834660
 C          5.0773072653        0.0942451866        0.1984521994
 C          6.4488457156        0.5098343196        0.0666252522
 C          6.9066022880        1.4769793848       -0.7831929819
 C          8.3083211044        1.6874441139       -0.7091723243
 C          8.9237365268        0.8876470576        0.1912952966
 S          7.7877749279       -0.1504275045        0.9749353097
 S          3.7476249767        0.7614617659       -0.7125095240
 S          0.0082268163       -1.3179148810        0.5712526302
 S         -4.0200702670       -0.4091842574       -1.1403813891
 Cl        -8.4474195876        2.9309374770        1.7047371601
 H         -7.8789720835        2.1469864263        0.7840433740
 H         -7.3829041784        1.0331335407       -1.5122318668
 H         -6.0221437847        0.9425868772       -0.6615456465
 H         -8.4798842496       -0.4868634036       -0.1095547455
 H         -7.1819357056       -0.3536251852        1.0527302183
 H         -6.7713254367       -1.4411437394       -1.7800613922
 H         -7.0499592011       -2.4653395360       -0.3904306153
 H         -5.0754757130       -2.9979486741        1.1145610477
 H         -2.5080202002       -2.5899619818        1.2826234120
 H         -1.5010922889        0.8643245782       -1.8586978591
 H          1.0672438196        1.2495135354       -1.7163918216
 H          2.6953438952       -1.8067013329        1.5776544476
 H          5.2646974427       -1.4229109394        1.7110867729
 H          6.2549719383        2.0246378683       -1.4455637903
 H          8.8280929545        2.4159689522       -1.3135368256
 H          9.9760396532        0.8853633903        0.4033490438
          40
        -67.12311076
 N         -8.6484646481       -0.1081188534       -0.4045914929
 C         -7.2326647796       -0.1306833822       -0.0756601048
 C         -6.4825608136       -1.2973814976       -0.7150939067
 C         -5.0330382892       -1.2967169003       -0.3840472303
 C         -4.4505611633       -1.9771732477        0.6360320388
 C         -3.0483341930       -1.7823056512        0.7283941476
 C         -2.5433340218       -0.9438038144       -0.2237787494
 C         -1.1610601071       -0.5702049223       -0.3649289628
 C         -0.6598081664        0.2778501161       -1.3152168003
 C          0.7351552596        0.4723515436       -1.2327582764
 C          1.3351614809       -0.2234102164       -0.2171844938
 C          2.7382835376       -0.2109520928        0.0877142039
 C          3.3407712097       -0.9065578023        1.1020382295
 C          4.7372242247       -0.7181485181        1.1760350219
 C          5.2364343254        0.1257111972        0.2208319803
 C          6.6199708736        0.4893232923        0.0645611064
 C          7.1178690547        1.3321560392       -0.8887858123
 C          8.5235769076        1.5139224398       -0.8136826062
 C          9.1022934563        0.8160703261        0.1900725391
 S          7.9251345801       -0.0871335159        1.0734487611
 S          3.9379283311        0.7014828032       -0.7918785015
 S          0.1334121594       -1.1374570834        0.6579850001
 S         -3.8353287698       -0.3862031334       -1.2568021725
 Cl        -9.5610045341        2.6632685886        1.2100007474
 H         -9.2016086778        1.5527433419        0.5605496445
 H         -9.0786114041       -0.9771594976       -0.1074063880
 H         -8.7623150649       -0.0762232169       -1.4123800141
 H         -7.1170431891       -0.1625201935        1.0142874698
 H         -6.7786851325        0.8186374189       -0.3843077044
 H         -6.6019220247       -1.2612206133       -1.8032577765
 H         -6.9310224763       -2.2458413050       -0.4010857593
 H         -5.0075168375       -2.6055043977        1.3136075445
 H         -2.4301382318       -2.2487180488        1.4790362738
 H         -1.2832828679        0.7497667146       -2.0580682604
 H          1.2881085933        1.1079407814       -1.9059809584
 H          2.7892108881       -1.5408750240        1.7776874268
 H          5.3634701224       -1.1939809107        1.9139300222
 H          6.4929216607        1.8101522244       -1.6265294525
 H          9.0737076122        2.1481101650       -1.4929228614
 H         10.1504164944        0.8116675082        0.4218013351
          40
        -67.12421713
 N         -7.2384266990        0.2754055279        0.9353540499
 C         -7.3159345926       -0.2111727985       -0.4307480428
 C         -6.6097752870       -1.5538955303       -0.6245268385
 C         -5.1658565359       -1.4832318156       -0.2801022491
 C         -4.5996688682       -1.9323062587        0.8692406983
 C         -3.2003707505       -1.7112001809        0.9437663148
 C         -2.6805296157       -1.0890463166       -0.1549827341
 C         -1.2971300652       -0.7434289254       -0.3473427258
 C         -0.7781239077       -0.1290312796       -1.4548827968
 C          0.6131806885        0.0953104405       -1.3878746479
 C          1.1923284477       -0.3417622253       -0.2263704436
 C          2.5868200583       -0.2385144620        0.1002545499
 C          3.1685195433       -0.6660419053        1.2641104626
 C          4.5605036573       -0.4427005865        1.3251017427
 C          5.0770303395        0.1603452627        0.2100794182
 C          6.4599513517        0.5019211027        0.0059910550
 C          6.9743562273        1.1014340126       -1.1089592974
 C          8.3749152839        1.3227698062       -1.0448856911
 C          8.9334812315        0.8968877063        0.1109889236
 S          7.7429893846        0.2090512649        1.1557250144
 S          3.8011112484        0.4581172675       -0.9416012470
 S         -0.0241729000       -1.0486967242        0.8060161413
 S         -3.9546854890       -0.7715998473       -1.3051965449
 Cl        -8.7616178064        3.2201542371        0.6495462870
 H         -8.1440018082        2.0418141132        0.7681113823
 H         -6.2638140034        0.3357976926        1.2081645381
 H         -7.6553665989       -0.4058744818        1.5610131534
 H         -6.8712307081        0.5408718036       -1.0936180899
 H         -8.3703465918       -0.2767949459       -0.7266720496
 H         -6.7131742827       -1.8974467388       -1.6603189210
 H         -7.0915328356       -2.3183205456       -0.0057349138
 H         -5.1666029614       -2.4078464162        1.6544547889
 H         -2.5948617685       -2.0045564125        1.7866499735
 H         -1.3863504506        0.1547190972       -2.2991593852
 H          1.1780124834        0.5688158756       -2.1751130003
 H          2.6049321512       -1.1307391145        2.0575197250
 H          5.1709509789       -0.7195526229        2.1699587785
 H          6.3650791597        1.3756298146       -1.9556675580
 H          8.9361639128        1.7853575250       -1.8431489000
 H          9.9746047318        0.9676123152        0.3626465575
