13

N          1.48652        0.03641       -0.05481
C          2.91747        0.03288       -0.04842
C          3.60900        0.78260       -1.14859
C          3.59792       -0.72017       -1.15021
Cl        -1.28386       -0.17518       -0.21049
H          1.01403        0.60477        0.66515
H          1.01151       -0.87428        0.07611
H          1.00234        0.35771       -0.90905
H          3.39796        0.01279        0.92660
H          4.54346        1.28145       -0.91428
H          3.01958        1.29337       -1.90221
H          4.52460       -1.23327       -0.91692
H          2.99611       -1.22442       -1.89868
