  21

 N          3.0579178909       -3.4711373637        1.4269127743
 C          2.5183654629       -2.7350724820        0.2452760210
 C          2.9985623525       -1.2847899738        0.3315096833
 C          4.5040412045       -1.2758041121        0.4097654563
 C          5.2751776936       -1.2885132073       -0.7474856483
 C          6.6526115336       -1.3676447695       -0.6784396803
 C          7.2817021306       -1.4468428069        0.5598322289
 Cl         8.9955426681       -1.5566248553        0.6495928064
 C          6.5277369138       -1.4259674641        1.7254255369
 C          5.1461884116       -1.3487574598        1.6472061383
 H          3.0821915494       -4.4853884404        1.2830416054
 H          2.5055046077       -3.2678221074        2.2676163639
 H          4.0281389501       -3.0912096864        1.5720835186
 H          1.4308851962       -2.8007643894        0.2320313178
 H          2.9148478936       -3.1996645666       -0.6582677780
 H          2.5641101555       -0.7959416950        1.2044615501
 H          2.6600228299       -0.7498804802       -0.5541743601
 H          4.7940689619       -1.2195075249       -1.7111435873
 H          7.2440353683       -1.3629244791       -1.5792558263
 H          7.0188547801       -1.4588680063        2.6842676379
 H          4.5799934449       -1.2539741298        2.5654742412
