 xtb: 6.5.1 (fef0646)
          01232313453D

 16 15  0     0  0            999 V2000
    1.4682   -0.4939   -0.2966 N   0  0  0  0  0  0  0  0  0  0  0  0
    2.7772   -0.0303    0.1819 C   0  0  0  0  0  0  0  0  0  0  0  0
    3.0776    1.3162   -0.3857 C   0  0  0  0  0  0  0  0  0  0  0  0
    2.6900    2.5338    0.0781 C   0  0  0  0  0  0  0  0  0  0  0  0
    3.1205    3.5998   -0.7433 C   0  0  0  0  0  0  0  0  0  0  0  0
    3.8242    3.1774   -1.8224 C   0  0  0  0  0  0  0  0  0  0  0  0
    3.9774    1.4670   -1.8632 S   0  0  0  0  0  0  0  0  0  0  0  0
   -0.6485    1.2742    0.7323 Cl  0  0  0  0  0  0  0  0  0  0  0  0
    1.2646   -1.4244    0.0515 H   0  0  0  0  0  0  0  0  0  0  0  0
    1.4454   -0.5112   -1.3113 H   0  0  0  0  0  0  0  0  0  0  0  0
    0.3372    0.4743    0.2405 H   0  0  0  0  0  0  0  0  0  0  0  0
    3.5826   -0.7282   -0.0860 H   0  0  0  0  0  0  0  0  0  0  0  0
    2.7191    0.0377    1.2715 H   0  0  0  0  0  0  0  0  0  0  0  0
    2.1098    2.6634    0.9728 H   0  0  0  0  0  0  0  0  0  0  0  0
    2.9133    4.6342   -0.5365 H   0  0  0  0  0  0  0  0  0  0  0  0
    4.2684    3.7605   -2.6043 H   0  0  0  0  0  0  0  0  0  0  0  0
  1  2  1  0  0  0  0
  2  3  1  0  0  0  0
  3  4  2  0  0  0  0
  4  5  4  0  0  0  0
  5  6  2  0  0  0  0
  3  7  1  0  0  0  0
  6  7  1  0  0  0  0
  1  9  1  0  0  0  0
  1 10  1  0  0  0  0
  8 11  1  0  0  0  0
  2 12  1  0  0  0  0
  2 13  1  0  0  0  0
  4 14  1  0  0  0  0
  5 15  1  0  0  0  0
  6 16  1  0  0  0  0
M  END
