 xtb: 6.5.1 (fef0646)
          01232314123D

 18 16  0     0  0            999 V2000
    1.1167    0.2598   -0.3990 N   0  0  0  0  0  0  0  0  0  0  0  0
    2.5756    0.3540   -0.3529 C   0  0  0  0  0  0  0  0  0  0  0  0
    3.0238    0.8352    1.0233 C   0  0  0  0  0  0  0  0  0  0  0  0
    4.5446    0.8604    1.1529 C   0  0  0  0  0  0  0  0  0  0  0  0
    4.9772    1.3414    2.5323 C   0  0  0  0  0  0  0  0  0  0  0  0
    0.1551   -1.6311    1.6253 Cl  0  0  0  0  0  0  0  0  0  0  0  0
    0.7957   -0.0663   -1.3037 H   0  0  0  0  0  0  0  0  0  0  0  0
    0.6925    1.1614   -0.2058 H   0  0  0  0  0  0  0  0  0  0  0  0
    0.6170   -0.7455    0.6811 H   0  0  0  0  0  0  0  0  0  0  0  0
    2.9692    1.0276   -1.1279 H   0  0  0  0  0  0  0  0  0  0  0  0
    2.9737   -0.6462   -0.5395 H   0  0  0  0  0  0  0  0  0  0  0  0
    2.6024    0.1701    1.7775 H   0  0  0  0  0  0  0  0  0  0  0  0
    2.6286    1.8381    1.2020 H   0  0  0  0  0  0  0  0  0  0  0  0
    4.9657    1.5183    0.3884 H   0  0  0  0  0  0  0  0  0  0  0  0
    4.9368   -0.1437    0.9789 H   0  0  0  0  0  0  0  0  0  0  0  0
    4.6146    2.3504    2.7168 H   0  0  0  0  0  0  0  0  0  0  0  0
    6.0613    1.3456    2.6140 H   0  0  0  0  0  0  0  0  0  0  0  0
    4.5761    0.6875    3.3032 H   0  0  0  0  0  0  0  0  0  0  0  0
  1  2  1  0  0  0  0
  2  3  1  0  0  0  0
  3  4  1  0  0  0  0
  4  5  1  0  0  0  0
  1  7  1  0  0  0  0
  1  8  1  0  0  0  0
  6  9  1  0  0  0  0
  2 10  1  0  0  0  0
  2 11  1  0  0  0  0
  3 12  1  0  0  0  0
  3 13  1  0  0  0  0
  4 14  1  0  0  0  0
  4 15  1  0  0  0  0
  5 16  1  0  0  0  0
  5 17  1  0  0  0  0
  5 18  1  0  0  0  0
M  END
