41
1.211
N           -6.77922  -0.34129  -0.15948
C           -5.77788   0.13886   0.83533
C           -4.35483  -0.30723   0.51209
C           -3.78791   0.33639  -0.75321
C           -2.37153  -0.13194  -1.10383
C           -1.30324   0.31234  -0.10319
C            0.10679  -0.13131  -0.49698
C            1.17937   0.30904   0.50029
C            2.58430  -0.16298   0.12164
C            3.65478   0.27504   1.12275
C            5.05371  -0.26719   0.81301
C            5.66319   0.28555  -0.47679
C            7.07367  -0.22481  -0.72975
H           -6.75484  -1.36870  -0.24272
H           -6.60337   0.04968  -1.09670
H           -7.74008  -0.07574   0.10679
H           -6.06879  -0.22249   1.83012
H           -5.81962   1.23282   0.89573
H           -4.33353  -1.39780   0.40601
H           -3.69616  -0.08632   1.36020
H           -3.79568   1.42686  -0.64274
H           -4.46107   0.12898  -1.59338
H           -2.09533   0.23411  -2.10054
H           -2.35947  -1.22474  -1.18804
H           -1.53913  -0.07644   0.89344
H           -1.32915   1.40315   0.00129
H            0.35005   0.25686  -1.49285
H            0.13074  -1.22211  -0.60268
H            0.92495  -0.06301   1.49947
H            1.17034   1.40128   0.59189
H            2.83395   0.20641  -0.87914
H            2.59113  -1.25560   0.03370
H            3.34933  -0.04173   2.12774
H            3.68749   1.36976   1.16643
H            5.01770  -1.36141   0.75859
H            5.73113  -0.04541   1.64715
H            5.66309   1.38206  -0.43566
H            5.01883   0.03193  -1.32716
H            7.49583   0.17741  -1.65319
H            7.09231  -1.31310  -0.80798
H            7.74623   0.05104   0.08435
