25
 xtb: 6.5.1 (fef0646)
N           -1.42952761902781        2.03151421746603        0.56105311055850
C           -0.36770544114687        1.87668861679149       -0.47177968828575
C            0.43510317633572        0.57414063403659       -0.33817814454910
C            1.17853922987956        0.47783514743563        1.01597314825895
C            1.99366418714368       -0.82323756415166        1.12313105305121
C            2.98552821637821       -0.95525167608994       -0.04475343495146
C            2.25526018920842       -0.87414904311422       -1.39598646801388
C            1.44359491028380        0.42754593487434       -1.50486536005088
Cl          -3.26400042118901       -1.29745700872548        0.36191678081268
H           -1.11212544429777        2.01070628586612        1.50631219096295
H           -2.07457693965489        1.08689183994298        0.51752839406988
H           -2.10517910068502        2.75023640746817        0.39036541531559
H            0.26246365907432        2.71505528242996       -0.37316130184115
H           -0.82968406325215        1.90425598534259       -1.46864520366681
H           -0.25888563593327       -0.29739336727097       -0.39177032959511
H            0.46778672171161        0.55118628802725        1.85086784176011
H            1.83960746589655        1.33764317784010        1.11070801440293
H            1.31681065460635       -1.68726107072907        1.11706643067145
H            2.52190675535994       -0.87598142508684        2.08790706189628
H            3.56601178465714       -1.88522837018598        0.03102079477810
H            3.72915632117363       -0.14530095567144        0.01689937351019
H            1.58707108077547       -1.73292965232332       -1.49997376857931
H            2.96955615724876       -0.95355134571447       -2.23149774200733
H            0.91868127219353        0.48812575844658       -2.46748058583405
H            2.11598187964037        1.28989654874813       -1.48232220305931
