18
0.532
N           -2.62063  -0.67415   0.61748
C           -2.31437   0.77750   0.46796
C           -1.26063   1.05453  -0.60509
C            0.08784   0.53299  -0.25621
C            1.08297   1.22089   0.42959
C            2.25766   0.48231   0.61121
C            2.19401  -0.79086   0.07646
S            0.66038  -1.04946  -0.64344
H           -1.77044  -1.20926   0.84458
H           -3.00821  -1.06354  -0.25460
H           -3.30917  -0.84631   1.36648
H           -1.97158   1.17572   1.43078
H           -3.24474   1.31333   0.23673
H           -1.18514   2.13144  -0.79935
H           -1.57781   0.60591  -1.55314
H            0.96328   2.23769   0.77563
H            3.13364   0.87153   1.11425
H            2.98362  -1.52178   0.09761
