  25

 N          1.2366981652       -0.3419012705        0.0965019620
 C          2.6858987684       -0.1071831955        0.0921415907
 C          3.1601267251        0.0052063601       -1.3319139140
 C          3.4538831923       -1.1667373624       -2.0554065000
 C          3.8388511001       -1.1030656036       -3.3639404389
 C          3.2603817857        1.2228105807       -1.9509052705
 C          3.6554839614        1.3238333667       -3.2995821021
 C          3.9499719847        0.1384559874       -4.0230458847
 C          4.3419287437        0.2411161156       -5.3737305881
 C          4.4362451687        1.4616017137       -5.9814138107
 C          4.1425505367        2.6341920632       -5.2670975469
 C          3.7618319946        2.5676487824       -3.9563402711
 Cl        -0.1571286154        1.8945098664       -1.1930907597
 H          0.8816835340       -0.4430159084        1.0410719261
 H          1.0110661981       -1.1768964585       -0.4346483382
 H          0.5061165883        0.8573002552       -0.5990085607
 H          3.2315261170       -0.9136879638        0.6037167304
 H          2.8674311464        0.8278600929        0.6265651067
 H          3.3761110718       -2.1253393513       -1.5602489546
 H          4.0628796616       -2.0063004005       -3.9135907146
 H          3.0266800885        2.1268970267       -1.4088709401
 H          4.5648298936       -0.6644591556       -5.9203168157
 H          4.7359560837        1.5332015035       -7.0168843419
 H          4.2197516392        3.5896995117       -5.7650438505
 H          3.5310844667        3.4665134440       -3.4031477130
