28
 xtb: 6.5.1 (fef0646)
N           -3.72477594689822        0.02730671580887        1.44632953386543
C           -2.24374773013152        0.16714696444970        1.33680356049210
C           -1.70186412640420       -0.36225763660613        0.01125555644183
C           -0.21092297624665       -0.22127092874448       -0.09563544356550
C            0.61693873583987       -1.16053451584758        0.45808730353604
C            2.02285687150550       -1.02677691517509        0.40090012533552
C            2.89383031730581       -1.98964961060420        0.96156736109530
C            4.24508998181203       -1.82907736979604        0.88939578798566
C            4.79416272680770       -0.70499685331500        0.25624517742812
C            3.98385577789603        0.24238065115932       -0.29471826959140
C            2.57735651441862        0.10832315328223       -0.23726023547468
C            1.70440315734050        1.07159071430160       -0.79146908001112
C            0.35358738526308        0.90909706311844       -0.71863246869904
Cl          -4.96595016341220        1.73868710882463       -1.54251581776528
H           -4.12270285579720        0.49403970587650        2.26148560282317
H           -4.03448087393585       -0.90479134070488        1.36061943328121
H           -4.18405053399999        0.56175781984466        0.59700092416488
H           -1.79663740873725       -0.29370246211856        2.17811956280082
H           -1.96946099225569        1.25794259567677        1.40116192684719
H           -2.17604904589168        0.10501342632141       -0.83606302332517
H           -1.96949589661674       -1.43612557167356       -0.05520584988730
H            0.20338714719241       -2.03992061796492        0.93868188586343
H            2.48745046027686       -2.87462053985045        1.41614047602893
H            4.91292502883111       -2.58164955984896        1.28431400935172
H            5.86885688765805       -0.58536434183295        0.19654723388783
H            4.40087640143818        1.12194142764847       -0.76101081432919
H            2.11381663965707        1.95355382154917       -1.23588275559137
H           -0.31183077334108        1.65572980387885       -1.09828472243193
