16
 xtb: 6.5.1 (fef0646)
N           -0.35660029164484        1.18458090707829       -0.76488978644428
C           -1.24318353456095        0.94515451489266        0.40796196503046
C           -1.11564172203902       -0.48400802040101        0.93103008545818
C           -1.55054538475464       -1.51263773507348       -0.05909427348885
C           -2.81462580491697       -1.66788529775292       -0.41542441300627
Cl           2.73937530375902        0.47057043733603        0.01452672462745
H            0.58377851754557        1.01179051910954       -0.55932261864944
H           -0.47937453328164        2.18279180188634       -1.11602491446177
H           -0.67586167931193        0.58408526206118       -1.56039777618195
H           -2.31870684758804        1.15835815425709        0.15353910624612
H           -1.01725590288402        1.67143140150753        1.20266555085522
H           -1.72230785880282       -0.61180993835321        1.84115486776156
H           -0.09265186258903       -0.65597235400060        1.22013672188098
H           -0.78873255174034       -2.05414269235864       -0.59252685098001
H           -3.60971963219346       -1.14240474061805        0.07676942185391
H           -3.11579497287574       -2.42355327334374       -1.13533750255406
