  35

 N         -5.7551133072        1.4882312257        1.0260627041
 C         -5.9493090220        0.0205022448        0.8552503644
 C         -5.2942086461       -0.5120727842       -0.4173704383
 C         -3.8014212862       -0.3622593070       -0.4168074966
 C         -3.0008591391       -1.2531661844        0.2898440062
 C         -1.6318182712       -1.1192340692        0.3067588260
 C         -1.0007709292       -0.0746795127       -0.3861820839
 C          0.4256206441        0.0995933920       -0.4095345611
 C          1.3367590910       -0.7185265526        0.1824337199
 C          2.7624187756       -0.5401452385        0.1469513008
 C          3.3706388296        0.5522231091       -0.4859937235
 C          4.7438018303        0.6953857593       -0.5055412205
 F          5.2980926325        1.7587857428       -1.1023572914
 C          5.5448636896       -0.2601989748        0.1070216347
 C          4.9692416480       -1.3445015580        0.7387632175
 C          3.5998176305       -1.4871350810        0.7625818164
 C         -1.8184293917        0.8265374864       -1.0851885419
 C         -3.1862663059        0.6829629594       -1.0976981761
 H         -6.1927359118        1.8351647258        1.8936883724
 H         -6.1688926524        2.0104553180        0.2391998524
 H         -4.7529265970        1.7279861791        1.0647924815
 H         -7.0240408661       -0.2018046600        0.8532693112
 H         -5.5383708980       -0.5018215897        1.7272311621
 H         -5.7084796039        0.0092601862       -1.2868220820
 H         -5.5450366749       -1.5690718190       -0.5645574364
 H         -3.4680524513       -2.0620410308        0.8271247058
 H         -1.0409855363       -1.8266029500        0.8621808884
 H          0.7873180711        0.9498320285       -0.9595160145
 H          0.9798284927       -1.5813265144        0.7157572702
 H          2.7841058297        1.3139158987       -0.9659840136
 H          6.6146136817       -0.1343803628        0.0759907250
 H          5.5969194950       -2.0834119246        1.2130794269
 H          3.1577561767       -2.3383973199        1.2536038315
 H         -1.3597940551        1.6386640080       -1.6252026398
 H         -3.7942787949        1.3812868289       -1.6487432465
          35
        -50.11884016
 N         -5.7485790031        0.9636906778       -1.4844164917
 C         -5.9610953625       -0.3020568379       -0.7271061387
 C         -5.2935672553       -0.2818596317        0.6464435426
 C         -3.8003169824       -0.1591869072        0.5705062018
 C         -3.1750339908        1.0728384200        0.7293011462
 C         -1.8082020087        1.1889940731        0.6341869471
 C         -1.0015601977        0.0706815366        0.3731534591
 C          0.4234171083        0.2323725152        0.2784809374
 C          1.3254525498       -0.7640488961        0.0700055974
 C          2.7475824449       -0.5888815296       -0.0427725705
 C          3.3581874935        0.6713708834        0.0069964549
 C          4.7268306652        0.8098495559       -0.1121251403
 F          5.2831263875        2.0269993076       -0.0679172735
 C          5.5205773056       -0.3173932381       -0.2820251777
 C          4.9427685753       -1.5702253425       -0.3335151620
 C          3.5777162676       -1.7100043297       -0.2173298567
 C         -1.6420779701       -1.1672334813        0.2099299405
 C         -3.0107196012       -1.2728938005        0.3045074225
 H         -6.1984772366        0.9363073511       -2.4126116749
 H         -4.7442045274        1.1443367549       -1.6300167464
 H         -6.1392387593        1.7705317628       -0.9744025546
 H         -5.5712985811       -1.1423914048       -1.3136372772
 H         -7.0386987863       -0.4833754979       -0.6255666421
 H         -5.5481746172       -1.1871472450        1.2099276884
 H         -5.6938985613        0.5500760898        1.2354461289
 H         -3.7748882887        1.9439253240        0.9351779445
 H         -1.3417122738        2.1515514873        0.7660832848
 H          0.7916787349        1.2364189087        0.3903843091
 H          0.9632027335       -1.7729099192       -0.0151483324
 H          2.7766913452        1.5660096901        0.1320884707
 H          6.5866601118       -0.1886244813       -0.3725628456
 H          5.5651249891       -2.4419780932       -0.4655701706
 H          3.1336096298       -2.6909814575       -0.2581337889
 H         -1.0594065430       -2.0482439259        0.0039276243
 H         -3.4858808558       -2.2314717007        0.1752969370
