  35

 N          2.8921181566       -1.3052107743       -1.8514333346
 C          2.4780819886       -0.5666867656       -0.6336166677
 C          3.0508758213       -1.2463318713        0.6096775147
 C          4.5550334625       -1.1785587155        0.6275006213
 C          5.2020719487       -0.0008636443        0.9891100581
 C          6.5793862489        0.0794631806        0.9947636662
 C          7.3624215677       -1.0206592907        0.6327658190
 C          8.8137215861       -0.9981621104        0.6367564889
 C          9.5835150458       -0.0804194955        1.2377447751
 C         11.0348156553       -0.0782411075        1.2665618915
 C         11.8084731694       -0.8643615263        0.4088424519
 C         13.1808015646       -0.8113104361        0.5071839764
 F         13.9224125176       -1.5856206602       -0.3446436519
 C         13.8417526658       -0.0131926758        1.4207420096
 C         13.0733340535        0.7709526493        2.2666339349
 C         11.6947494800        0.7429983671        2.1865556426
 C          6.7070340880       -2.1954651076        0.2552636167
 C          5.3279321059       -2.2734515860        0.2553349511
 H          2.5787251766       -0.8226633072       -2.7009189840
 H          2.4969304867       -2.2526936978       -1.8438076412
 H          3.9167764356       -1.3852222984       -1.8719695459
 H          1.3904518653       -0.5472404464       -0.5782019678
 H          2.8481709733        0.4564114864       -0.6948085308
 H          2.7269957596       -2.2861940013        0.6521831254
 H          2.6590464242       -0.7399261384        1.4913252846
 H          4.6217334984        0.8612792750        1.2821579131
 H          7.0543497194        1.0063665433        1.2745778937
 H          9.2809713635       -1.8350164878        0.1348467412
 H          9.1260066677        0.7240231250        1.7964746736
 H         11.3627448299       -1.5003934967       -0.3377992911
 H         14.9186916653       -0.0095125422        1.4576760356
 H         13.5608722697        1.4068678204        2.9884590172
 H         11.1127080141        1.3602038238        2.8539991273
 H          7.2932301118       -3.0581391283       -0.0267831240
 H          4.8561636125       -3.2072989593       -0.0126644908
