19
1.451
N           -1.07255  -2.17265  -0.01282
C           -0.13683  -1.69432  -1.07357
C            0.75301  -0.56044  -0.65549
C            0.71465  -0.02122   0.62228
C            1.54419   1.02512   0.97562
C            2.42699   1.54874   0.05332
C            2.47745   1.02349  -1.22181
C            1.64656  -0.02243  -1.57171
Cl          -2.92064   0.59998   1.07641
H           -1.68758  -2.92576  -0.35205
H           -1.67539  -1.39841   0.31477
H           -0.55557  -2.53303   0.80086
H           -0.71309  -1.38190  -1.95215
H            0.48829  -2.52829  -1.41246
H            0.02737  -0.42096   1.34668
H            1.50129   1.43359   1.97250
H            3.07483   2.36579   0.32784
H            3.16547   1.43030  -1.94556
H            1.68482  -0.43209  -2.56734
