 xtb: 6.5.1 (fef0646)
          01242316573D

 19 18  0     0  0            999 V2000
   -1.0726   -2.1726   -0.0128 N   0  0  0  0  0  0  0  0  0  0  0  0
   -0.1368   -1.6943   -1.0736 C   0  0  0  0  0  0  0  0  0  0  0  0
    0.7530   -0.5604   -0.6555 C   0  0  0  0  0  0  0  0  0  0  0  0
    0.7147   -0.0212    0.6223 C   0  0  0  0  0  0  0  0  0  0  0  0
    1.5442    1.0251    0.9756 C   0  0  0  0  0  0  0  0  0  0  0  0
    2.4270    1.5487    0.0533 C   0  0  0  0  0  0  0  0  0  0  0  0
    2.4775    1.0235   -1.2218 C   0  0  0  0  0  0  0  0  0  0  0  0
    1.6466   -0.0224   -1.5717 C   0  0  0  0  0  0  0  0  0  0  0  0
   -2.9206    0.6000    1.0764 Cl  0  0  0  0  0  0  0  0  0  0  0  0
   -1.6876   -2.9258   -0.3520 H   0  0  0  0  0  0  0  0  0  0  0  0
   -1.6754   -1.3984    0.3148 H   0  0  0  0  0  0  0  0  0  0  0  0
   -0.5556   -2.5330    0.8009 H   0  0  0  0  0  0  0  0  0  0  0  0
   -0.7131   -1.3819   -1.9521 H   0  0  0  0  0  0  0  0  0  0  0  0
    0.4883   -2.5283   -1.4125 H   0  0  0  0  0  0  0  0  0  0  0  0
    0.0274   -0.4210    1.3467 H   0  0  0  0  0  0  0  0  0  0  0  0
    1.5013    1.4336    1.9725 H   0  0  0  0  0  0  0  0  0  0  0  0
    3.0748    2.3658    0.3278 H   0  0  0  0  0  0  0  0  0  0  0  0
    3.1655    1.4303   -1.9456 H   0  0  0  0  0  0  0  0  0  0  0  0
    1.6848   -0.4321   -2.5673 H   0  0  0  0  0  0  0  0  0  0  0  0
  1  2  1  0  0  0  0
  2  3  1  0  0  0  0
  3  4  4  0  0  0  0
  4  5  4  0  0  0  0
  5  6  4  0  0  0  0
  6  7  4  0  0  0  0
  3  8  4  0  0  0  0
  7  8  4  0  0  0  0
  1 10  1  0  0  0  0
  1 11  1  0  0  0  0
  1 12  1  0  0  0  0
  2 13  1  0  0  0  0
  2 14  1  0  0  0  0
  4 15  1  0  0  0  0
  5 16  1  0  0  0  0
  6 17  1  0  0  0  0
  7 18  1  0  0  0  0
  8 19  1  0  0  0  0
M  END
