 xtb: 6.5.1 (fef0646)
          01242314573D

 20 19  0     0  0            999 V2000
    0.8640   -0.0124   -0.0163 N   0  0  0  0  0  0  0  0  0  0  0  0
    2.3475   -0.0232   -0.0285 C   0  0  0  0  0  0  0  0  0  0  0  0
    2.8718   -0.6914   -1.2945 C   0  0  0  0  0  0  0  0  0  0  0  0
    4.3999   -0.7010   -1.3135 C   0  0  0  0  0  0  0  0  0  0  0  0
    4.9446   -1.3669   -2.5760 C   0  0  0  0  0  0  0  0  0  0  0  0
    6.4687   -1.3764   -2.5950 C   0  0  0  0  0  0  0  0  0  0  0  0
    0.5093    0.4408    0.8335 H   0  0  0  0  0  0  0  0  0  0  0  0
    0.5044   -0.9735   -0.0536 H   0  0  0  0  0  0  0  0  0  0  0  0
    0.5090    0.4960   -0.8349 H   0  0  0  0  0  0  0  0  0  0  0  0
    2.7089   -0.5623    0.8470 H   0  0  0  0  0  0  0  0  0  0  0  0
    2.7137    1.0020    0.0225 H   0  0  0  0  0  0  0  0  0  0  0  0
    2.5188   -0.1578   -2.1780 H   0  0  0  0  0  0  0  0  0  0  0  0
    2.5186   -1.7217   -1.3533 H   0  0  0  0  0  0  0  0  0  0  0  0
    4.7788   -1.2367   -0.4410 H   0  0  0  0  0  0  0  0  0  0  0  0
    4.7782    0.3218   -1.2635 H   0  0  0  0  0  0  0  0  0  0  0  0
    4.5808   -0.8353   -3.4579 H   0  0  0  0  0  0  0  0  0  0  0  0
    4.5814   -2.3953   -2.6348 H   0  0  0  0  0  0  0  0  0  0  0  0
    6.8609   -0.3620   -2.5623 H   0  0  0  0  0  0  0  0  0  0  0  0
    6.8382   -1.8537   -3.4998 H   0  0  0  0  0  0  0  0  0  0  0  0
    6.8615   -1.9214   -1.7392 H   0  0  0  0  0  0  0  0  0  0  0  0
  1  2  1  0  0  0  0
  2  3  1  0  0  0  0
  3  4  1  0  0  0  0
  4  5  1  0  0  0  0
  5  6  1  0  0  0  0
  1  7  1  0  0  0  0
  1  8  1  0  0  0  0
  1  9  1  0  0  0  0
  2 10  1  0  0  0  0
  2 11  1  0  0  0  0
  3 12  1  0  0  0  0
  3 13  1  0  0  0  0
  4 14  1  0  0  0  0
  4 15  1  0  0  0  0
  5 16  1  0  0  0  0
  5 17  1  0  0  0  0
  6 18  1  0  0  0  0
  6 19  1  0  0  0  0
  6 20  1  0  0  0  0
M  CHG  1   1   1
M  END
