  25

 N         -1.6071339084        1.4934341430       -0.2430820104
 C         -0.2971848140        2.1270442170        0.0635630884
 C          0.8801857016        1.1392778881        0.0561356878
 C          1.0602101431        0.4353351795       -1.3091088509
 C          2.3017292244       -0.4737695131       -1.3040241545
 C          2.2218223942       -1.5119171072       -0.1701574314
 C          2.0153247565       -0.8310056269        1.1949186243
 C          0.7731285076        0.0766817969        1.1743489028
 Cl        -2.4928260613       -1.0707611052        1.9705343593
 H         -2.3811970901        2.1777098088       -0.2165350661
 H         -1.8368039556        0.7443926831        0.4344827422
 H         -1.6090318385        1.0668733002       -1.1845115024
 H         -0.3531506339        2.6198119923        1.0415465155
 H         -0.1072934256        2.9272361008       -0.6618681756
 H          1.8065396158        1.7080321025        0.2465417494
 H          1.1074877455        1.1761026657       -2.1180704843
 H          0.1715229303       -0.1709815797       -1.5160451173
 H          3.2014808990        0.1405566502       -1.1720033294
 H          2.4262847950       -0.9679122810       -2.2779952797
 H          3.1204581842       -2.1446062472       -0.1574637779
 H          1.3863091457       -2.1968430142       -0.3635795589
 H          2.9004439772       -0.2296471769        1.4384711975
 H          1.9397147054       -1.5776893927        1.9979387733
 H          0.6101231559        0.5582374903        2.1475343061
 H         -0.1165824390       -0.5363807056        0.9960050819
          25
        -30.59191310
 N         -1.5753205438        1.8438526508       -0.5198016881
 C         -0.3540073856        1.8674021006        0.3289991988
 C          0.4700356818        0.5765778707        0.2217662212
 C          1.6334026961        0.5595179899        1.2437969353
 C          2.4445153207       -0.7441264664        1.1553374663
 C          2.9807714332       -0.9636012961       -0.2693330974
 C          1.8349561047       -0.9543005580       -1.2955627026
 C          1.0212427563        0.3486414495       -1.2061414186
 Cl        -3.1993686383       -1.1425539938        0.1838327816
 H         -2.1779836759        2.6679876912       -0.3603125137
 H         -2.1381069388        0.9969367844       -0.3218771336
 H         -1.3380138412        1.8258210699       -1.5255863182
 H         -0.6395823956        2.0301784544        1.3751525210
 H          0.2740657973        2.7232765242        0.0582593981
 H         -0.1944470696       -0.2702725223        0.4577026548
 H          1.2489094358        0.7182453965        2.2600402049
 H          2.2886573188        1.4150193301        1.0435388496
 H          1.8039820376       -1.5896453472        1.4366227827
 H          3.2652766326       -0.7435614207        1.8865159734
 H          3.5541925870       -1.8991983531       -0.3316945547
 H          3.6945596433       -0.1669482163       -0.5152507338
 H          1.1724295633       -1.8087316728       -1.1070419089
 H          2.2212039671       -1.1037301692       -2.3136827513
 H          0.2031661675        0.3461034404       -1.9378034443
 H          1.6549532247        1.2001714705       -1.4787630286
          25
        -30.59203204
 N         -1.5793662875        1.8553894441       -0.4766831847
 C         -0.3678573763        1.8459127808        0.3861458425
 C          0.4642329760        0.5656352565        0.2273011622
 C          1.5934791257        0.4862233539        1.2839137896
 C          2.4070955810       -0.8112393311        1.1433570637
 C          2.9908861557       -0.9447930853       -0.2733464319
 C          1.8808737077       -0.8688921890       -1.3357551551
 C          1.0634843130        0.4269993339       -1.1926903095
 Cl        -3.1980986667       -1.1520250192        0.1394908603
 H         -2.1839913188        2.6731535312       -0.2932327519
 H         -2.1436773041        1.0015169819       -0.3161445992
 H         -1.3309728067        1.8733370321       -1.4797806432
 H         -0.6671846934        1.9568316006        1.4352650013
 H          0.2585049991        2.7170464521        0.1643132325
 H         -0.2046233801       -0.2951315764        0.3887966012
 H          1.1760073587        0.5842453808        2.2947864080
 H          2.2545454023        1.3511852848        1.1565354663
 H          1.7573931711       -1.6710486457        1.3509147192
 H          3.2027639881       -0.8568766339        1.9003731793
 H          3.5645571046       -1.8769921345       -0.3734048473
 H          3.7140951306       -0.1374118762       -0.4456617641
 H          1.2129520297       -1.7326430645       -1.2249862150
 H          2.3023406499       -0.9538872770       -2.3472888676
 H          0.2709676013        0.4723418584       -1.9505656151
 H          1.7059082121        1.2927931904       -1.3893476522
