  25

 N          1.2204700000        0.0333400000       -0.4061900000
 C          2.5833100000        0.1108100000        0.1066100000
 C          2.9015400000       -0.9647800000        1.1556100000
 C          2.7672300000       -2.3902300000        0.5910700000
 C          3.0361000000       -3.4583100000        1.6464100000
 C          2.1455400000       -3.2609000000        2.8666400000
 C          2.3546500000       -1.8770600000        3.4724500000
 C          2.0937400000       -0.7724800000        2.4510200000
 Cl        -1.2981300000       -1.1781800000       -0.0464400000
 H          0.9546700000        0.7030200000       -1.1315600000
 H          0.4525900000        0.1032600000        0.3008600000
 H          0.9126700000       -0.8899500000       -0.7723900000
 H          2.7064200000        1.1154600000        0.5239700000
 H          3.2471000000        0.0139900000       -0.7585400000
 H          3.9593200000       -0.8297300000        1.4237000000
 H          3.4660700000       -2.5228300000       -0.2434000000
 H          1.7631900000       -2.5576600000        0.1894500000
 H          4.0900500000       -3.4228300000        1.9478900000
 H          2.8595600000       -4.4513900000        1.2166000000
 H          2.3691800000       -4.0298700000        3.6139000000
 H          1.0936200000       -3.3852200000        2.5805500000
 H          3.3808300000       -1.7935200000        3.8502100000
 H          1.6870000000       -1.7464100000        4.3313000000
 H          2.3474300000        0.1963500000        2.9002000000
 H          1.0212600000       -0.7460800000        2.2392500000
