28
 xtb: 6.5.1 (fef0646)
N           -2.49779770762083        1.14554387330020       -0.41332030003079
C           -1.85750072608548       -0.12664822411670        0.03197031852522
C           -0.35900628020004       -0.14562826602103       -0.28233850180283
C            0.26335524394518       -1.53914929899949       -0.03855880719022
C            1.75672836896804       -1.55179809811604       -0.39783797012017
C            2.53431502702411       -0.47228458503641        0.38327128108271
C            3.99647493210351       -0.45793734806513       -0.00881783888159
O            4.26217450262348       -0.47514586512107       -1.33587923067533
O            4.85422839854390       -0.41199939631128        0.84992176332251
C            1.90831529359607        0.91804310086596        0.16498556927775
C            0.41410961671230        0.92504690401579        0.52079837285758
Cl          -6.25598370045071        0.78989889240574        0.31830913100700
H           -2.19657685698251        1.93858232289534        0.11547710089400
H           -3.57522720717926        1.07387774292996       -0.20925292911763
H           -2.42679829711111        1.28237253933333       -1.39345707154716
H           -2.36123509985016       -0.99361264196981       -0.43545835667113
H           -2.01672244909851       -0.28393676123858        1.12122002264996
H           -0.26588467600837        0.09640105216235       -1.34904300562079
H           -0.29741104623609       -2.29950002061262       -0.60521037856185
H            0.12210355780325       -1.80092441399934        1.01286504140873
H            1.86984564237395       -1.35498890787591       -1.47200163626124
H            2.18746158617241       -2.53177552681430       -0.22564985082917
H            2.46752060032616       -0.70858187642245        1.45259422078858
H            5.21029206547605       -0.45544923899452       -1.45858442803384
H            2.02487849887684        1.20212889091208       -0.88771603984149
H            2.44092739090839        1.67715122020073        0.73819124081119
H           -0.03526399499416        1.92247708519602        0.35438387716935
H            0.27199243645186        0.72928561574306        1.58881257258900
