49
 xtb: 6.5.1 (fef0646)
N            6.34822956809691       -3.34249496956639       -0.40269459368110
C            7.36632505289879       -2.39816421946699       -0.94848381884016
C            7.64126694712576       -1.21738708445438       -0.01605098967467
C            6.50458636317968       -0.25758720753386        0.09628624482616
C            6.61094332753003        1.07807877486896        0.35116609953514
C            5.36873335852156        1.75830981034351        0.41203896422086
C            4.27879217762194        0.94825369518083        0.20556955912546
C            2.90094507634116        1.34169648800729        0.21218028893553
C            2.40278763009892        2.61577792981149        0.36271912117484
C            0.99196301226307        2.71366093577017        0.34789608634994
C            0.32155617089436        4.03715013611474        0.48039174473536
C            0.35949480916557        1.48178023049189        0.19717448331747
C           -1.04131958829231        1.13054670483633        0.16189861783213
C           -2.08056406945925        2.03266686309553        0.41715601985047
C           -3.41288051233030        1.66705021961847        0.37738009957002
C           -3.84244990827075        0.37317702356713        0.06964116107804
C           -5.26333268923769        0.06705620398901        0.06465686729242
C           -5.95879480871700       -0.89992983313131       -0.63877714141953
C           -5.36863020136551       -1.84393875379077       -1.62674990056063
C           -7.35211460176968       -0.90402139630623       -0.34195044401053
C           -7.73464411018241        0.04601624813708        0.54393282283552
S           -6.38511924320614        0.97021609658925        1.04972747336714
C           -2.82670309348357       -0.60115649617889       -0.16422129415454
N           -2.99069638353991       -1.90568426320236       -0.37784611253769
S           -1.52196467958215       -2.59603463078537       -0.53403479505267
N           -0.61094575928651       -1.25444713786481       -0.32238458161941
C           -1.42480608505589       -0.21951624194983       -0.11477337625878
S            1.57427205787222        0.24753475239970        0.04813367480291
S            4.83766221859311       -0.66922109711691       -0.11557177514994
H            5.46355544478311       -2.84439838776753       -0.23488484987822
H            6.65163024288821       -3.75606663279679        0.48097475239978
H            6.14804518357143       -4.11543694532961       -1.06747089309519
H            7.04880801849061       -2.02479055063633       -1.92463191792178
H            8.30004991705145       -2.95667106481555       -1.13290317640463
H            8.53319181212633       -0.67539789276931       -0.34003195719763
H            7.87053992759313       -1.59370222306817        0.99052002323246
H            7.56343542459248        1.58185235367535        0.42163233164812
H            5.29042706726980        2.82821912179335        0.53479519449279
H            3.03923462351894        3.47334829353899        0.52223727105646
H           -0.37637615931353        4.21815845736624       -0.28804099624143
H            1.05372664215155        4.84162543297105        0.51378845673057
H           -0.20767486445095        4.09489065338314        1.47934566511578
H           -1.84732280781049        3.05008736993915        0.66597282513968
H           -4.16830866608220        2.40819614397559        0.57660106274988
H           -4.99263520146216       -2.74970611550614       -1.09995270730332
H           -4.54335387503290       -1.40568448242624       -2.15004938238600
H           -6.11397915200588       -2.18428742627743       -2.34257725926565
H           -8.04026171198086       -1.61637473498550       -0.77469946289717
H           -8.73738893205227        0.21844535632931        0.89094298856721
