17
1.823
N           -4.35927   0.80893  -0.26171
C           -2.91855   0.73752   0.13521
C           -2.27874  -0.60980  -0.19038
C           -0.81673  -0.73775   0.27109
C            0.14742   0.17850  -0.46503
Br           1.97092  -0.09814   0.10317
H           -4.75993   1.72269  -0.03331
H           -4.90437   0.09263   0.22501
H           -4.46369   0.65753  -1.26832
H           -2.83319   0.93806   1.20990
H           -2.37203   1.54535  -0.36420
H           -2.33793  -0.78974  -1.26926
H           -2.88067  -1.40418   0.26638
H           -0.48054  -1.77703   0.14813
H           -0.75545  -0.54446   1.35032
H           -0.08290   1.23222  -0.29447
H            0.11294   0.00846  -1.54383
