17
 xtb: 6.5.1 (fef0646)
N           -4.34896195784535        0.83194856373939       -0.23259367827297
C           -2.90526058580742        0.73866454780689        0.14439210440243
C           -2.28251082759096       -0.61299029840907       -0.19715370655269
C           -0.81607046564008       -0.75218228562778        0.24737973471754
C            0.15887338704053        0.10314222706345       -0.54999968871091
Br           1.95565891991885       -0.06670502726578        0.13728636273457
H           -4.76693337018069        1.71180735132934        0.02573285026518
H           -4.89211651654750        0.06545400839055        0.19451285884801
H           -4.46175412081832        0.71845616215632       -1.26855111600470
H           -2.82542848803292        0.93396265845103        1.21309858332143
H           -2.36753795262334        1.54637057931722       -0.35978913914481
H           -2.34413759104643       -0.79098176197600       -1.27075238520504
H           -2.88211355191685       -1.40315186946914        0.26750510700494
H           -0.48711396765294       -1.78511428251091        0.15531742568757
H           -0.74952252004685       -0.53304065078124        1.34031746450275
H           -0.08603511681440        1.21458839859343       -0.35278940294664
H            0.12771772510337       -0.04526865508807       -1.56355139549704
