17
 xtb: 6.5.1 (fef0646)
N           -4.37601057414864        0.77127093222543       -0.31721597982112
C           -2.94216403991391        0.73632266236080        0.11893780672543
C           -2.27172087945662       -0.60452546619344       -0.17173252776029
C           -0.81814282425656       -0.70440474817480        0.32341992295761
C            0.12895353219992        0.29534498349080       -0.33102909645354
Br           1.99643906979603       -0.15088271822652        0.04412126479204
H           -4.76502234022253        1.71942668304769       -0.07669703689873
H           -4.91258371410241        0.09651738813803        0.22634759861598
H           -4.46186618940393        0.61864936170278       -1.27960867456193
H           -2.84878929288138        0.94349409566235        1.20484116348657
H           -2.37944551019144        1.54484667237720       -0.36960983325855
H           -2.32700198116998       -0.79159093563142       -1.26385624970268
H           -2.87784143836153       -1.40445607959872        0.26954714452163
H           -0.46973014331950       -1.76171894393484        0.14703301695312
H           -0.76577866440129       -0.55354601041310        1.36943746990335
H           -0.07711665311721        1.26045982078852       -0.20784004742210
H            0.08852112316858        0.08713546943488       -1.51184051999274
