 xtb: 6.5.1 (fef0646)
          02032320383D

 17 16  0     0  0            999 V2000
   -4.3593    0.8090   -0.2617 N   0  0  0  0  0  0  0  0  0  0  0  0
   -2.9185    0.7375    0.1352 C   0  0  0  0  0  0  0  0  0  0  0  0
   -2.2787   -0.6098   -0.1904 C   0  0  0  0  0  0  0  0  0  0  0  0
   -0.8167   -0.7377    0.2711 C   0  0  0  0  0  0  0  0  0  0  0  0
    0.1474    0.1785   -0.4650 C   0  0  0  0  0  0  0  0  0  0  0  0
    1.9709   -0.0982    0.1032 Br  0  0  0  0  0  0  0  0  0  0  0  0
   -4.7599    1.7227   -0.0333 H   0  0  0  0  0  0  0  0  0  0  0  0
   -4.9044    0.0927    0.2250 H   0  0  0  0  0  0  0  0  0  0  0  0
   -4.4637    0.6576   -1.2683 H   0  0  0  0  0  0  0  0  0  0  0  0
   -2.8332    0.9381    1.2099 H   0  0  0  0  0  0  0  0  0  0  0  0
   -2.3720    1.5454   -0.3642 H   0  0  0  0  0  0  0  0  0  0  0  0
   -2.3379   -0.7897   -1.2693 H   0  0  0  0  0  0  0  0  0  0  0  0
   -2.8807   -1.4042    0.2664 H   0  0  0  0  0  0  0  0  0  0  0  0
   -0.4805   -1.7770    0.1481 H   0  0  0  0  0  0  0  0  0  0  0  0
   -0.7554   -0.5445    1.3503 H   0  0  0  0  0  0  0  0  0  0  0  0
   -0.0829    1.2322   -0.2945 H   0  0  0  0  0  0  0  0  0  0  0  0
    0.1129    0.0085   -1.5438 H   0  0  0  0  0  0  0  0  0  0  0  0
  1  2  1  0  0  0  0
  2  3  1  0  0  0  0
  3  4  1  0  0  0  0
  4  5  1  0  0  0  0
  5  6  1  0  0  0  0
  1  7  1  0  0  0  0
  1  8  1  0  0  0  0
  1  9  1  0  0  0  0
  2 10  1  0  0  0  0
  2 11  1  0  0  0  0
  3 12  1  0  0  0  0
  3 13  1  0  0  0  0
  4 14  1  0  0  0  0
  4 15  1  0  0  0  0
  5 16  1  0  0  0  0
  5 17  1  0  0  0  0
M  CHG  1   1   1
M  END
