 xtb: 6.5.1 (fef0646)
          01242310043D

 19 18  0     0  0            999 V2000
   -1.1232   -1.9807   -0.5454 N   0  0  0  0  0  0  0  0  0  0  0  0
   -0.0180   -1.8967    0.4519 C   0  0  0  0  0  0  0  0  0  0  0  0
    0.8705   -0.7124    0.2288 C   0  0  0  0  0  0  0  0  0  0  0  0
    2.2421   -0.8697    0.0766 C   0  0  0  0  0  0  0  0  0  0  0  0
    3.0586    0.2248   -0.1244 C   0  0  0  0  0  0  0  0  0  0  0  0
    2.5150    1.4936   -0.1761 C   0  0  0  0  0  0  0  0  0  0  0  0
    1.1534    1.6641   -0.0273 C   0  0  0  0  0  0  0  0  0  0  0  0
    0.3377    0.5688    0.1739 C   0  0  0  0  0  0  0  0  0  0  0  0
   -3.1654    0.8132    0.0327 Cl  0  0  0  0  0  0  0  0  0  0  0  0
   -0.7491   -1.9781   -1.5067 H   0  0  0  0  0  0  0  0  0  0  0  0
   -1.7602   -1.1668   -0.4592 H   0  0  0  0  0  0  0  0  0  0  0  0
   -1.6916   -2.8348   -0.4289 H   0  0  0  0  0  0  0  0  0  0  0  0
    0.5785   -2.8149    0.4157 H   0  0  0  0  0  0  0  0  0  0  0  0
   -0.4325   -1.8517    1.4662 H   0  0  0  0  0  0  0  0  0  0  0  0
    2.6673   -1.8600    0.1177 H   0  0  0  0  0  0  0  0  0  0  0  0
    4.1228    0.0892   -0.2408 H   0  0  0  0  0  0  0  0  0  0  0  0
    3.1528    2.3489   -0.3334 H   0  0  0  0  0  0  0  0  0  0  0  0
    0.7252    2.6544   -0.0704 H   0  0  0  0  0  0  0  0  0  0  0  0
   -0.7267    0.7015    0.2800 H   0  0  0  0  0  0  0  0  0  0  0  0
  1  2  1  0  0  0  0
  2  3  1  0  0  0  0
  3  4  4  0  0  0  0
  4  5  4  0  0  0  0
  5  6  4  0  0  0  0
  6  7  4  0  0  0  0
  3  8  4  0  0  0  0
  7  8  4  0  0  0  0
  1 10  1  0  0  0  0
  1 11  1  0  0  0  0
  1 12  1  0  0  0  0
  2 13  1  0  0  0  0
  2 14  1  0  0  0  0
  4 15  1  0  0  0  0
  5 16  1  0  0  0  0
  6 17  1  0  0  0  0
  7 18  1  0  0  0  0
  8 19  1  0  0  0  0
M  END
