 xtb: 6.5.1 (fef0646)
          01242314563D

 15 13  0     0  0            999 V2000
    1.0886   -0.3001    0.1821 N   0  0  0  0  0  0  0  0  0  0  0  0
    2.5418   -0.3172    0.4471 C   0  0  0  0  0  0  0  0  0  0  0  0
    3.0158    1.0665    0.8740 C   0  0  0  0  0  0  0  0  0  0  0  0
    4.5307    1.1004    1.0385 C   0  0  0  0  0  0  0  0  0  0  0  0
    0.4791    1.6433   -2.1007 Cl  0  0  0  0  0  0  0  0  0  0  0  0
    0.7467   -1.2179   -0.1105 H   0  0  0  0  0  0  0  0  0  0  0  0
    0.8766    0.3774   -0.5941 H   0  0  0  0  0  0  0  0  0  0  0  0
    0.5742    0.0138    1.0083 H   0  0  0  0  0  0  0  0  0  0  0  0
    3.0571   -0.6055   -0.4687 H   0  0  0  0  0  0  0  0  0  0  0  0
    2.7616   -1.0476    1.2271 H   0  0  0  0  0  0  0  0  0  0  0  0
    2.5465    1.3471    1.8178 H   0  0  0  0  0  0  0  0  0  0  0  0
    2.7096    1.7892    0.1154 H   0  0  0  0  0  0  0  0  0  0  0  0
    4.8528    0.3741    1.7807 H   0  0  0  0  0  0  0  0  0  0  0  0
    4.8558    2.0861    1.3598 H   0  0  0  0  0  0  0  0  0  0  0  0
    5.0226    0.8727    0.0961 H   0  0  0  0  0  0  0  0  0  0  0  0
  1  2  1  0  0  0  0
  2  3  1  0  0  0  0
  3  4  1  0  0  0  0
  1  6  1  0  0  0  0
  1  7  1  0  0  0  0
  1  8  1  0  0  0  0
  2  9  1  0  0  0  0
  2 10  1  0  0  0  0
  3 11  1  0  0  0  0
  3 12  1  0  0  0  0
  4 13  1  0  0  0  0
  4 14  1  0  0  0  0
  4 15  1  0  0  0  0
M  END
