34
 xtb: 6.5.1 (fef0646)
N            4.15697911428034        0.73430367059836       -1.73608587144042
C            2.78368415262474        0.24474051629310       -1.42163831596300
C            2.75922648085847       -0.63779966375562       -0.17807603357192
C            1.37646345222991       -1.07833459262501        0.19968267948065
C            0.86939569841224       -2.29250778309149       -0.24451183493479
C           -0.41520659220181       -2.67672422876422        0.06956280924565
C            0.55923486080442       -0.25198756414141        0.96035848889059
C           -0.72571890289094       -0.63097001642684        1.27507660243204
C           -1.23554358141976       -1.84791869762944        0.83033791133997
N           -2.55395251591778       -2.21410196697868        1.10456544831156
N           -3.53625850205280       -1.50228356757460        0.82078037757445
C           -3.44629338227314       -0.32076643437942        0.08220543555875
C           -2.85571844788852       -0.31189505054846       -1.17844752790800
C           -2.73482218907214        0.86197462724984       -1.88817672824448
C           -3.20563069359422        2.04568012819067       -1.35351627271296
C           -3.80064450999068        2.05090056479630       -0.10668731034255
C           -3.92215885313599        0.87850327211984        0.60599956283071
Cl           5.26237153788916        2.44637081529097        1.02550617136548
H            4.15189878912330        1.32390024865718       -2.59259542132804
H            4.77907127092255       -0.07356784063294       -1.94068250214562
H            4.53936561638457        1.25594374679276       -0.97053787293332
H            2.35679358083142       -0.32265706382598       -2.27258682446484
H            2.10686739140764        1.09471495029173       -1.28808514014998
H            3.20411038139076       -0.08246029508312        0.66112536789947
H            3.39679130088887       -1.50738929472142       -0.31898048921997
H            1.47449291314567       -2.90115990708265       -0.88966071601586
H           -0.82552649253516       -3.58644890502458       -0.32872026489970
H            0.95483399975035        0.67260590169055        1.35080062795061
H           -1.34419749885270       -0.01410415538538        1.90947682741748
H           -2.48526215278182       -1.24560200094036       -1.57878141480010
H           -2.26657313847400        0.84302906041052       -2.86498594454202
H           -3.10251989895859        2.95545087440951       -1.92244998968208
H           -4.15934469784387        2.97705871519624        0.29776435408964
H           -4.37041200570329        0.88366546624786        1.57827999847363
