34
 xtb: 6.5.1 (fef0646)
N            4.48994269707356        0.22036613588229       -0.41470138145847
C            4.13315101083776       -0.92469629334265       -1.30003317822890
C            2.75865488746510       -0.75787735599715       -1.94383933595708
C            1.64641818173150       -0.67773536960161       -0.94149479156540
C            1.03741015427143        0.53477173666913       -0.64830418486833
C            0.01756851449610        0.60538981503513        0.27356049788282
C            1.21720679748368       -1.81605805277068       -0.27394607621642
C            0.19746992583911       -1.75044123140744        0.64898648793382
C           -0.42426556424952       -0.53798016153328        0.93132829175216
N           -1.48777628026669       -0.47409422277135        1.83480864292808
N           -2.60803040901177       -0.00897642304536        1.54912133181403
C           -2.97846409013816        0.37472487344656        0.25975708558474
C           -3.47705531200447        1.65340843483737        0.02046247106404
C           -3.81529219476438        2.04450995405467       -1.25614162391034
C           -3.66457856454765        1.16679528235407       -2.31338858836929
C           -3.17682602241215       -0.10688270700021       -2.08979216058705
C           -2.83885203352057       -0.50098248690150       -0.81446383313979
Cl           2.66644206321248        0.34430880031058        2.45933722957837
H            3.85697378420004        0.29109522716289        0.36691286531797
H            4.44923595994076        1.11045194502395       -0.95195458485929
H            5.45753315403361        0.13079166668852       -0.05716532601984
H            4.16437264936099       -1.85203826766144       -0.72766330289480
H            4.90392751056779       -1.04629326184292       -2.09020255375204
H            2.55750230731785       -1.58614640763970       -2.64303206741585
H            2.75298870569446        0.14447792322281       -2.56967970465424
H            1.36029988155253        1.41954937585248       -1.16985737050257
H           -0.46661075262995        1.53503736031011        0.47654375228846
H            1.70604477685980       -2.76099885339906       -0.48787043407212
H           -0.12215551515504       -2.64193512434205        1.16008969906490
H           -3.52936751430824        2.34586342152557        0.84891714965842
H           -4.14673176112469        3.05731848945772       -1.42746192160652
H           -3.93254989054894        1.48327904957579       -3.30457549378156
H           -3.11082608062746       -0.80044481821339       -2.90600464332868
H           -2.49919861496024       -1.50349889344226       -0.62658124433615
