 xtb: 6.5.1 (fef0646)
          01242316593D

 34 34  0     0  0            999 V2000
    4.1420    0.7102   -1.7719 N   0  0  0  0  0  0  0  0  0  0  0  0
    2.7714    0.2337   -1.4302 C   0  0  0  0  0  0  0  0  0  0  0  0
    2.7553   -0.6286   -0.1730 C   0  0  0  0  0  0  0  0  0  0  0  0
    1.3745   -1.0738    0.2074 C   0  0  0  0  0  0  0  0  0  0  0  0
    0.8545   -2.2664   -0.2767 C   0  0  0  0  0  0  0  0  0  0  0  0
   -0.4300   -2.6526    0.0340 C   0  0  0  0  0  0  0  0  0  0  0  0
    0.5705   -0.2717    1.0050 C   0  0  0  0  0  0  0  0  0  0  0  0
   -0.7143   -0.6537    1.3183 C   0  0  0  0  0  0  0  0  0  0  0  0
   -1.2367   -1.8485    0.8336 C   0  0  0  0  0  0  0  0  0  0  0  0
   -2.5556   -2.2124    1.1098 N   0  0  0  0  0  0  0  0  0  0  0  0
   -3.5367   -1.4986    0.8268 N   0  0  0  0  0  0  0  0  0  0  0  0
   -3.4425   -0.3200    0.0842 C   0  0  0  0  0  0  0  0  0  0  0  0
   -2.8527   -0.3200   -1.1769 C   0  0  0  0  0  0  0  0  0  0  0  0
   -2.7295    0.8490   -1.8941 C   0  0  0  0  0  0  0  0  0  0  0  0
   -3.1973    2.0370   -1.3665 C   0  0  0  0  0  0  0  0  0  0  0  0
   -3.7904    2.0513   -0.1189 C   0  0  0  0  0  0  0  0  0  0  0  0
   -3.9136    0.8838    0.6015 C   0  0  0  0  0  0  0  0  0  0  0  0
    5.2684    2.4701    1.0506 Cl  0  0  0  0  0  0  0  0  0  0  0  0
    4.1459    1.3122   -2.6061 H   0  0  0  0  0  0  0  0  0  0  0  0
    4.7739   -0.0818   -1.9471 H   0  0  0  0  0  0  0  0  0  0  0  0
    4.5374    1.2533   -0.9859 H   0  0  0  0  0  0  0  0  0  0  0  0
    2.3502   -0.3294   -2.2711 H   0  0  0  0  0  0  0  0  0  0  0  0
    2.1047    1.0930   -1.2929 H   0  0  0  0  0  0  0  0  0  0  0  0
    3.2018   -0.0757    0.6604 H   0  0  0  0  0  0  0  0  0  0  0  0
    3.3973   -1.5042   -0.3139 H   0  0  0  0  0  0  0  0  0  0  0  0
    1.4670   -2.8876   -0.9080 H   0  0  0  0  0  0  0  0  0  0  0  0
   -0.8329   -3.5743   -0.3484 H   0  0  0  0  0  0  0  0  0  0  0  0
    0.9608    0.6623    1.3724 H   0  0  0  0  0  0  0  0  0  0  0  0
   -1.3383   -0.0260    1.9301 H   0  0  0  0  0  0  0  0  0  0  0  0
   -2.4856   -1.2490   -1.5770 H   0  0  0  0  0  0  0  0  0  0  0  0
   -2.2654    0.8371   -2.8668 H   0  0  0  0  0  0  0  0  0  0  0  0
   -3.0999    2.9518   -1.9280 H   0  0  0  0  0  0  0  0  0  0  0  0
   -4.1557    2.9782    0.2926 H   0  0  0  0  0  0  0  0  0  0  0  0
   -4.3676    0.8874    1.5771 H   0  0  0  0  0  0  0  0  0  0  0  0
  1  2  1  0  0  0  0
  2  3  1  0  0  0  0
  3  4  1  0  0  0  0
  4  5  4  0  0  0  0
  5  6  4  0  0  0  0
  4  7  4  0  0  0  0
  7  8  4  0  0  0  0
  6  9  4  0  0  0  0
  8  9  4  0  0  0  0
  9 10  1  0  0  0  0
 10 11  2  0  0  0  0
 11 12  1  0  0  0  0
 12 13  4  0  0  0  0
 13 14  4  0  0  0  0
 14 15  4  0  0  0  0
 15 16  4  0  0  0  0
 12 17  4  0  0  0  0
 16 17  4  0  0  0  0
  1 19  1  0  0  0  0
  1 20  1  0  0  0  0
  1 21  1  0  0  0  0
  2 22  1  0  0  0  0
  2 23  1  0  0  0  0
  3 24  1  0  0  0  0
  3 25  1  0  0  0  0
  5 26  1  0  0  0  0
  6 27  1  0  0  0  0
  7 28  1  0  0  0  0
  8 29  1  0  0  0  0
 13 30  1  0  0  0  0
 14 31  1  0  0  0  0
 15 32  1  0  0  0  0
 16 33  1  0  0  0  0
 17 34  1  0  0  0  0
M  END
