19
 xtb: 6.5.1 (fef0646)
N           -1.20256617657054       -0.33460016832695        0.65599463247189
C           -0.38581429703354       -0.22146021549566       -0.58657622511301
C            0.99007218299815        0.30578540407049       -0.32181286868426
C            2.02925114724356       -0.55787234466533       -0.00847114281398
C            3.29219646960347       -0.07044252749314        0.26492305185641
C            3.53005601883159        1.28887911737115        0.23331683640003
C            2.50200472705753        2.15935501441275       -0.06834597665636
C            1.23959609506488        1.67027657749409       -0.34108379885480
Cl          -4.14140017183105       -1.47126548923454        0.00594086625919
H           -2.11501884415646       -0.68013531683777        0.49735082131464
H           -1.25655976684788        0.60377933020971        1.13311974046523
H           -0.70770634002820       -0.94816628854779        1.35148831605031
H           -0.87384384525407        0.43979012872407       -1.29216011738248
H           -0.29418429820428       -1.18992044069569       -1.06043822282847
H            1.86639046173761       -1.60808234625358        0.02390435235389
H            4.12090081155588       -0.74345947361045        0.49743172839929
H            4.54580612703738        1.67839746194176        0.43459441850257
H            2.71363915716284        3.23105399664402       -0.09709559478948
H            0.46163750184467        2.35872124959147       -0.56838017958757
