19
 xtb: 6.5.1 (fef0646)
N           -1.00847924296273       -2.11926681077307       -0.64769699368093
C            0.01768676901814       -1.93658952541869        0.42901586821321
C            0.87851757255941       -0.72933158808544        0.21541155257807
C            2.24638155832601       -0.86475855811253        0.01893441827286
C            3.04642441353826        0.24591836631172       -0.16064742625259
C            2.48728966070573        1.50798095390126       -0.14562000406583
C            1.12757785247597        1.65599264467929        0.04166138308520
C            0.32794328409431        0.54386130190933        0.21963786597661
Cl          -3.24067198220605        0.95139222145610        0.08236207417932
H           -1.71283075842285       -1.21828271681252       -0.55570250616098
H           -1.64887075226001       -2.87951137031115       -0.49834031468027
H           -0.67934307804088       -2.03448026476123       -1.56291311822528
H            0.60807341492901       -2.82682442224750        0.40013690655177
H           -0.44721009092959       -1.87453605327609        1.41528107228302
H            2.67068002883071       -1.85283312536958        0.02421388631911
H            4.11085575031513        0.11408720570089       -0.29235898708421
H            3.13003593591688        2.36978554326476       -0.28298638660599
H            0.70704498491027        2.65124693424447        0.03530069489097
H           -0.72959386228220        0.68044998856129        0.33887607034868
