 xtb: 6.5.1 (fef0646)
          01242310093D

 22 21  0     0  0            999 V2000
   -2.3388    1.0177    1.4549 N   0  0  0  0  0  0  0  0  0  0  0  0
   -2.2226    2.0834    0.4247 C   0  0  0  0  0  0  0  0  0  0  0  0
   -1.5563    1.5733   -0.8503 C   0  0  0  0  0  0  0  0  0  0  0  0
   -0.2124    0.9569   -0.5942 C   0  0  0  0  0  0  0  0  0  0  0  0
   -0.0963   -0.4111   -0.3732 C   0  0  0  0  0  0  0  0  0  0  0  0
    1.1305   -0.9781   -0.0971 C   0  0  0  0  0  0  0  0  0  0  0  0
    2.2616   -0.1812   -0.0309 C   0  0  0  0  0  0  0  0  0  0  0  0
    3.7982   -0.8875    0.3204 Cl  0  0  0  0  0  0  0  0  0  0  0  0
    2.1568    1.1843   -0.2402 C   0  0  0  0  0  0  0  0  0  0  0  0
    0.9279    1.7480   -0.5162 C   0  0  0  0  0  0  0  0  0  0  0  0
   -3.3576   -1.8910   -0.1821 Cl  0  0  0  0  0  0  0  0  0  0  0  0
   -1.4067    0.7304    1.7922 H   0  0  0  0  0  0  0  0  0  0  0  0
   -2.7856    0.1718    1.0543 H   0  0  0  0  0  0  0  0  0  0  0  0
   -2.8916    1.3170    2.2753 H   0  0  0  0  0  0  0  0  0  0  0  0
   -1.6468    2.9215    0.8359 H   0  0  0  0  0  0  0  0  0  0  0  0
   -3.2169    2.4885    0.1980 H   0  0  0  0  0  0  0  0  0  0  0  0
   -1.4507    2.3827   -1.5827 H   0  0  0  0  0  0  0  0  0  0  0  0
   -2.2020    0.8284   -1.3293 H   0  0  0  0  0  0  0  0  0  0  0  0
   -0.9817   -1.0248   -0.4066 H   0  0  0  0  0  0  0  0  0  0  0  0
    1.2256   -2.0378    0.0740 H   0  0  0  0  0  0  0  0  0  0  0  0
    3.0447    1.7925   -0.1814 H   0  0  0  0  0  0  0  0  0  0  0  0
    0.8421    2.8109   -0.6707 H   0  0  0  0  0  0  0  0  0  0  0  0
  1  2  1  0  0  0  0
  2  3  1  0  0  0  0
  3  4  1  0  0  0  0
  4  5  4  0  0  0  0
  5  6  4  0  0  0  0
  6  7  4  0  0  0  0
  7  8  1  0  0  0  0
  7  9  4  0  0  0  0
  4 10  4  0  0  0  0
  9 10  4  0  0  0  0
  1 12  1  0  0  0  0
  1 13  1  0  0  0  0
  1 14  1  0  0  0  0
  2 15  1  0  0  0  0
  2 16  1  0  0  0  0
  3 17  1  0  0  0  0
  3 18  1  0  0  0  0
  5 19  1  0  0  0  0
  6 20  1  0  0  0  0
  9 21  1  0  0  0  0
 10 22  1  0  0  0  0
M  END
