15
1.191
N           -2.30579  -0.29916  -0.04200
C           -0.93568  -0.04533   0.49867
C            0.07812   0.31783  -0.58356
C            1.44904   0.55028  -0.04278
C            2.31231  -0.42051   0.17313
H           -2.95932  -0.54592   0.70747
H           -2.29060  -1.06910  -0.71748
H           -2.66672   0.53313  -0.51788
H           -0.59106  -0.93291   1.04186
H           -0.98234   0.75805   1.24338
H           -0.26464   1.20641  -1.12589
H            0.11723  -0.47790  -1.33484
H            1.71984   1.56105   0.22287
H            2.07060  -1.43900  -0.05837
H            3.28638  -0.23032   0.58077
