15
0.0
N            1.88332  -0.64100  -0.06107
C            1.06737   0.47877   0.49252
C           -0.12824   0.84734  -0.38864
C           -1.16492  -0.22260  -0.46753
C           -2.14680  -0.34938   0.40372
H            2.68705  -0.86223   0.54641
H            2.25781  -0.40445  -0.99169
H            1.32531  -1.50160  -0.15843
H            1.71889   1.35243   0.63194
H            0.71686   0.20606   1.49590
H            0.22668   1.09178  -1.39753
H           -0.59902   1.76888  -0.02253
H           -1.08894  -0.93816  -1.27417
H           -2.26142   0.33817   1.22061
H           -2.88169  -1.12993   0.32065
