  27

 N         -3.8978088391       -0.0056861034       -0.0808346259
 C         -2.5139618653       -0.3923344939        0.3330386315
 C         -1.4529765716        0.5402688780       -0.2388484223
 C         -0.0134862432        0.2348415141        0.2275258944
 C          0.9643552856        1.3666275869       -0.1764657404
 C          2.3981389038        1.0855896125        0.3058429683
 C          2.9047834560       -0.2694466105       -0.2165591086
 C          1.9470657381       -1.4069971773        0.1769143210
 C          0.5114647694       -1.1223559708       -0.3013907035
 H         -4.6079858545       -0.6411782343        0.3126771875
 H         -3.9981437411       -0.0243459951       -1.1061548425
 H         -4.1274386660        0.9482870086        0.2337634626
 H         -2.3213419028       -1.4244048128        0.0211545455
 H         -2.4532230119       -0.3977428160        1.4275119633
 H         -1.7078414089        1.5708538624        0.0292753180
 H         -1.4896114354        0.5127800806       -1.3319642419
 H         -0.0194591343        0.1815424415        1.3269001244
 H          0.6069878814        2.3303438294        0.2057677213
 H          0.9572367180        1.4661064754       -1.2666813458
 H          2.4202583114        1.0844463237        1.4015742589
 H          3.0745184993        1.8951165677        0.0022256908
 H          3.9194952091       -0.4718351290        0.1501111320
 H          2.9930678288       -0.2288464915       -1.3082843615
 H          1.9511083833       -1.5242373575        1.2665623779
 H          2.3037329455       -2.3665037709       -0.2195301659
 H         -0.1597253198       -1.9359421475       -0.0040272232
 H          0.4855380022       -1.1086137076       -1.3957074557
          27
        -28.81937938
 N         -3.0641342026       -0.3238063280        0.9427042040
 C         -2.6566210698       -0.1525853066       -0.4842861099
 C         -1.4662040788        0.7854319285       -0.6642961195
 C         -0.1573769025        0.3148535632        0.0021193806
 C          0.9492483036        1.3944401323       -0.1085369003
 C          2.2543942090        0.9521222406        0.5760902750
 C          2.7550856223       -0.3870755931        0.0081141807
 C          1.6691856756       -1.4723401224        0.1069373632
 C          0.3628929203       -1.0244836938       -0.5744543639
 H         -2.3241067324       -0.7717111046        1.5020804267
 H         -3.9082419760       -0.9101062466        1.0285240847
 H         -3.2772135879        0.5855508286        1.3780926746
 H         -3.5174315116        0.2264700317       -1.0499330585
 H         -2.4375010525       -1.1335213485       -0.9196016291
 H         -1.7311402408        1.7715965370       -0.2686006075
 H         -1.2739789950        0.9444619190       -1.7307339159
 H         -0.3547439480        0.1588536341        1.0729431771
 H          0.5938547632        2.3453225617        0.3062743573
 H          1.1417546293        1.5940598060       -1.1676752417
 H          2.0843184044        0.8499690647        1.6538716754
 H          3.0253492009        1.7271378440        0.4753200636
 H          3.6704001097       -0.7075019725        0.5226203209
 H          3.0427922263       -0.2536063559       -1.0409799821
 H          1.4720966626       -1.6932646700        1.1620893727
 H          2.0263118992       -2.4159698952       -0.3256613454
 H         -0.4015882354       -1.8043205265       -0.4849659122
 H          0.5323343120       -0.9037501837       -1.6492394275
