 xtb: 6.5.1 (fef0646)
          01242317073D

 19 18  0     0  0            999 V2000
   -3.3788   -1.4221   -0.7010 N   0  0  0  0  0  0  0  0  0  0  0  0
   -3.6293   -0.0891   -0.0821 C   0  0  0  0  0  0  0  0  0  0  0  0
   -2.5329    0.2836    0.9153 C   0  0  0  0  0  0  0  0  0  0  0  0
   -1.2170    0.5040    0.2529 C   0  0  0  0  0  0  0  0  0  0  0  0
   -0.7573    1.6968   -0.2003 C   0  0  0  0  0  0  0  0  0  0  0  0
    0.5281    1.6201   -0.8136 C   0  0  0  0  0  0  0  0  0  0  0  0
    1.0384    0.3700   -0.8261 C   0  0  0  0  0  0  0  0  0  0  0  0
   -0.0495   -0.7492   -0.0834 S   0  0  0  0  0  0  0  0  0  0  0  0
    4.2227   -0.2804    0.6769 Cl  0  0  0  0  0  0  0  0  0  0  0  0
   -2.3955   -1.4670   -1.0056 H   0  0  0  0  0  0  0  0  0  0  0  0
   -3.9860   -1.6056   -1.5113 H   0  0  0  0  0  0  0  0  0  0  0  0
   -3.5152   -2.1778   -0.0171 H   0  0  0  0  0  0  0  0  0  0  0  0
   -4.6148   -0.0848    0.3993 H   0  0  0  0  0  0  0  0  0  0  0  0
   -3.6775    0.6772   -0.8647 H   0  0  0  0  0  0  0  0  0  0  0  0
   -2.4277   -0.5119    1.6604 H   0  0  0  0  0  0  0  0  0  0  0  0
   -2.8085    1.1842    1.4763 H   0  0  0  0  0  0  0  0  0  0  0  0
   -1.3170    2.6146   -0.1075 H   0  0  0  0  0  0  0  0  0  0  0  0
    1.0385    2.4779   -1.2260 H   0  0  0  0  0  0  0  0  0  0  0  0
    1.9908    0.0905   -1.2352 H   0  0  0  0  0  0  0  0  0  0  0  0
  1  2  1  0  0  0  0
  2  3  1  0  0  0  0
  3  4  1  0  0  0  0
  4  5  2  0  0  0  0
  5  6  4  0  0  0  0
  6  7  2  0  0  0  0
  4  8  1  0  0  0  0
  7  8  1  0  0  0  0
  1 10  1  0  0  0  0
  1 11  1  0  0  0  0
  1 12  1  0  0  0  0
  2 13  1  0  0  0  0
  2 14  1  0  0  0  0
  3 15  1  0  0  0  0
  3 16  1  0  0  0  0
  5 17  1  0  0  0  0
  6 18  1  0  0  0  0
  7 19  1  0  0  0  0
M  END
