 xtb: 6.5.1 (fef0646)
          01242310093D

 19 18  0     0  0            999 V2000
   -0.8705   -1.7622    0.6230 N   0  0  0  0  0  0  0  0  0  0  0  0
   -0.4492   -1.8183   -0.8040 C   0  0  0  0  0  0  0  0  0  0  0  0
   -0.2135   -0.4291   -1.3985 C   0  0  0  0  0  0  0  0  0  0  0  0
    0.9861    0.2724   -0.8525 C   0  0  0  0  0  0  0  0  0  0  0  0
    1.7858    1.1216   -1.5500 C   0  0  0  0  0  0  0  0  0  0  0  0
    2.8554    1.6739   -0.7795 C   0  0  0  0  0  0  0  0  0  0  0  0
    2.8680    1.2463    0.5035 C   0  0  0  0  0  0  0  0  0  0  0  0
    1.5646    0.1508    0.7820 S   0  0  0  0  0  0  0  0  0  0  0  0
   -3.8357    0.0020    0.8587 Cl  0  0  0  0  0  0  0  0  0  0  0  0
   -1.7662   -1.2477    0.7257 H   0  0  0  0  0  0  0  0  0  0  0  0
   -0.1636   -1.2513    1.1680 H   0  0  0  0  0  0  0  0  0  0  0  0
   -0.9866   -2.6992    1.0431 H   0  0  0  0  0  0  0  0  0  0  0  0
   -1.2110   -2.3577   -1.3815 H   0  0  0  0  0  0  0  0  0  0  0  0
    0.4679   -2.4128   -0.8942 H   0  0  0  0  0  0  0  0  0  0  0  0
   -1.0963    0.1960   -1.2223 H   0  0  0  0  0  0  0  0  0  0  0  0
   -0.1132   -0.4985   -2.4890 H   0  0  0  0  0  0  0  0  0  0  0  0
    1.6212    1.3597   -2.5907 H   0  0  0  0  0  0  0  0  0  0  0  0
    3.5787    2.3675   -1.1848 H   0  0  0  0  0  0  0  0  0  0  0  0
    3.5802    1.5357    1.2543 H   0  0  0  0  0  0  0  0  0  0  0  0
  1  2  1  0  0  0  0
  2  3  1  0  0  0  0
  3  4  1  0  0  0  0
  4  5  2  0  0  0  0
  5  6  4  0  0  0  0
  6  7  2  0  0  0  0
  4  8  1  0  0  0  0
  7  8  1  0  0  0  0
  1 10  1  0  0  0  0
  1 11  1  0  0  0  0
  1 12  1  0  0  0  0
  2 13  1  0  0  0  0
  2 14  1  0  0  0  0
  3 15  1  0  0  0  0
  3 16  1  0  0  0  0
  5 17  1  0  0  0  0
  6 18  1  0  0  0  0
  7 19  1  0  0  0  0
M  END
