18
2.045
N           -0.64942   0.75911   1.25906
C           -0.14535   1.71516   0.23688
C            0.22763   1.02686  -1.07937
C            0.92606  -0.32334  -0.90343
C            2.09279  -0.26375   0.04664
O            3.21914   0.31680  -0.42352
O            1.97674  -0.70541   1.17099
Cl          -3.22912  -1.06439  -0.25129
H           -0.93701   1.22269   2.13360
H            0.12177   0.10495   1.46869
H           -1.44423   0.21547   0.89248
H            0.73553   2.22465   0.64682
H           -0.88620   2.50516   0.06406
H            0.87077   1.69172  -1.66839
H           -0.67524   0.88673  -1.68578
H            1.27760  -0.70488  -1.86724
H            0.21839  -1.06801  -0.52775
H            3.89340   0.30099   0.27025
