 xtb: 6.5.1 (fef0646)
          01242317093D

 18 16  0     0  0            999 V2000
   -0.6494    0.7591    1.2591 N   0  0  0  0  0  0  0  0  0  0  0  0
   -0.1453    1.7152    0.2369 C   0  0  0  0  0  0  0  0  0  0  0  0
    0.2276    1.0269   -1.0794 C   0  0  0  0  0  0  0  0  0  0  0  0
    0.9261   -0.3233   -0.9034 C   0  0  0  0  0  0  0  0  0  0  0  0
    2.0928   -0.2638    0.0466 C   0  0  0  0  0  0  0  0  0  0  0  0
    3.2191    0.3168   -0.4235 O   0  0  0  0  0  0  0  0  0  0  0  0
    1.9767   -0.7054    1.1710 O   0  0  0  0  0  0  0  0  0  0  0  0
   -3.2291   -1.0644   -0.2513 Cl  0  0  0  0  0  0  0  0  0  0  0  0
   -0.9370    1.2227    2.1336 H   0  0  0  0  0  0  0  0  0  0  0  0
    0.1218    0.1050    1.4687 H   0  0  0  0  0  0  0  0  0  0  0  0
   -1.4442    0.2155    0.8925 H   0  0  0  0  0  0  0  0  0  0  0  0
    0.7355    2.2246    0.6468 H   0  0  0  0  0  0  0  0  0  0  0  0
   -0.8862    2.5052    0.0641 H   0  0  0  0  0  0  0  0  0  0  0  0
    0.8708    1.6917   -1.6684 H   0  0  0  0  0  0  0  0  0  0  0  0
   -0.6752    0.8867   -1.6858 H   0  0  0  0  0  0  0  0  0  0  0  0
    1.2776   -0.7049   -1.8672 H   0  0  0  0  0  0  0  0  0  0  0  0
    0.2184   -1.0680   -0.5277 H   0  0  0  0  0  0  0  0  0  0  0  0
    3.8934    0.3010    0.2702 H   0  0  0  0  0  0  0  0  0  0  0  0
  1  2  1  0  0  0  0
  2  3  1  0  0  0  0
  3  4  1  0  0  0  0
  4  5  1  0  0  0  0
  5  6  1  0  0  0  0
  5  7  2  0  0  0  0
  1  9  1  0  0  0  0
  1 10  1  0  0  0  0
  1 11  1  0  0  0  0
  2 12  1  0  0  0  0
  2 13  1  0  0  0  0
  3 14  1  0  0  0  0
  3 15  1  0  0  0  0
  4 16  1  0  0  0  0
  4 17  1  0  0  0  0
  6 18  1  0  0  0  0
M  END
