19

N          3.19164       -1.15197       -0.46726
C          2.68259        0.20341       -0.16470
C          3.09283        0.72683        1.18263
C          3.08053        2.11162        1.40486
C          3.36571        2.63741        2.64925
C          3.67459        1.79736        3.72366
C          3.68116        0.42209        3.52543
C          3.39814       -0.11607        2.27898
Cl         0.48352       -2.12504        1.01546
H          2.92393       -1.45210       -1.39948
H          2.63997       -1.78950        0.17478
H          4.18566       -1.24808       -0.29507
H          1.59821        0.18961       -0.27202
H          3.08998        0.84574       -0.95681
H          2.80176        2.79197        0.59646
H          3.32867        3.71336        2.81609
H          3.87579        2.21056        4.70415
H          3.87516       -0.25022        4.36799
H          3.35022       -1.20017        2.19228
