26
 xtb: 6.5.1 (fef0646)
N           -2.24104103412929       -1.02100022897071       -1.55105869986076
C           -2.05980364234031       -2.11100380696363       -0.55176190797198
C           -1.41312437512139       -1.61447159678456        0.74042558597535
C           -0.11093128731908       -0.90963506389641        0.49922331104495
C            1.06295094002305       -1.62739499146988        0.31126540521681
C            2.25282085608672       -0.98414221140073        0.04755341949644
C            2.30899086008396        0.40888395266584       -0.04154399940648
O            3.46643162682968        1.14176724531767       -0.30587681121431
C            4.63166682554960        0.36665781680864       -0.47822731440923
C            1.12156307825511        1.12092065313952        0.14180057252876
C           -0.06556032557403        0.47436211797080        0.40241640703800
Cl          -3.44053141214408        1.91877582330129        0.55571430617434
H           -2.78482350075519       -0.16170752326865       -1.02126052701378
H           -2.83354894660327       -1.20281287118980       -2.32515420613005
H           -1.38077491672103       -0.55327351504540       -1.81237005775885
H           -1.47472153122435       -2.83529862003727       -1.03800000848724
H           -3.04664619593873       -2.54403879779995       -0.32801522147363
H           -1.23669652848443       -2.47516418997593        1.41008913430776
H           -2.07536442582586       -0.94864145600157        1.29957583624999
H            1.03988990225357       -2.70441000045774        0.37757024202522
H            3.15298817895208       -1.56361173818169       -0.08716752547307
H            4.84111571004283       -0.19718398791524        0.43254307026264
H            5.47224148654135        1.03998910972099       -0.67255067775268
H            4.51495020235725       -0.30339929095269       -1.32788586599847
H            1.15652181584334        2.19300072817531        0.06381676063660
H           -0.97329845815903        1.03444890369955        0.52141980046968
