 xtb: 6.5.1 (fef0646)
          01242310123D

 43 46  0     0  0            999 V2000
    3.6934    0.2206    1.6064 N   0  0  0  0  0  0  0  0  0  0  0  0
    4.9473    0.2743    0.8166 C   0  0  0  0  0  0  0  0  0  0  0  0
    4.6827   -0.0502   -0.6461 C   0  0  0  0  0  0  0  0  0  0  0  0
    3.6815    0.8160   -1.1898 O   0  0  0  0  0  0  0  0  0  0  0  0
    2.3718    0.3461   -1.0985 C   0  0  0  0  0  0  0  0  0  0  0  0
    1.9974   -0.9546   -1.4223 C   0  0  0  0  0  0  0  0  0  0  0  0
    0.6985   -1.3884   -1.2650 C   0  0  0  0  0  0  0  0  0  0  0  0
   -0.3072   -0.5568   -0.7720 C   0  0  0  0  0  0  0  0  0  0  0  0
    0.0258    0.7900   -0.4519 C   0  0  0  0  0  0  0  0  0  0  0  0
   -0.9526    1.6916    0.0561 C   0  0  0  0  0  0  0  0  0  0  0  0
   -0.5623    2.9898    0.3633 C   0  0  0  0  0  0  0  0  0  0  0  0
    0.7447    3.4195    0.1824 C   0  0  0  0  0  0  0  0  0  0  0  0
    1.6919    2.5620   -0.3086 C   0  0  0  0  0  0  0  0  0  0  0  0
    1.3575    1.2430   -0.6334 C   0  0  0  0  0  0  0  0  0  0  0  0
   -1.6699   -1.0219   -0.5798 C   0  0  0  0  0  0  0  0  0  0  0  0
   -2.0536   -2.3272   -0.8667 C   0  0  0  0  0  0  0  0  0  0  0  0
   -3.3602   -2.7616   -0.6818 C   0  0  0  0  0  0  0  0  0  0  0  0
   -4.3141   -1.9067   -0.2063 C   0  0  0  0  0  0  0  0  0  0  0  0
   -3.9870   -0.5729    0.1056 C   0  0  0  0  0  0  0  0  0  0  0  0
   -4.9597    0.3182    0.5979 C   0  0  0  0  0  0  0  0  0  0  0  0
   -4.6285    1.6088    0.8979 C   0  0  0  0  0  0  0  0  0  0  0  0
   -3.3255    2.0610    0.7227 C   0  0  0  0  0  0  0  0  0  0  0  0
   -2.3229    1.2287    0.2413 C   0  0  0  0  0  0  0  0  0  0  0  0
   -2.6538   -0.1194   -0.0787 C   0  0  0  0  0  0  0  0  0  0  0  0
    2.1544   -2.8903    1.5033 Cl  0  0  0  0  0  0  0  0  0  0  0  0
    2.9933    0.8481    1.1849 H   0  0  0  0  0  0  0  0  0  0  0  0
    3.8275    0.4998    2.5923 H   0  0  0  0  0  0  0  0  0  0  0  0
    3.2821   -0.7322    1.5921 H   0  0  0  0  0  0  0  0  0  0  0  0
    5.6943   -0.4073    1.2412 H   0  0  0  0  0  0  0  0  0  0  0  0
    5.3745    1.2813    0.8905 H   0  0  0  0  0  0  0  0  0  0  0  0
    4.3665   -1.0907   -0.7584 H   0  0  0  0  0  0  0  0  0  0  0  0
    5.5851    0.0746   -1.2556 H   0  0  0  0  0  0  0  0  0  0  0  0
    2.7339   -1.6227   -1.8330 H   0  0  0  0  0  0  0  0  0  0  0  0
    0.4653   -2.4037   -1.5329 H   0  0  0  0  0  0  0  0  0  0  0  0
   -1.2816    3.6888    0.7517 H   0  0  0  0  0  0  0  0  0  0  0  0
    1.0146    4.4348    0.4277 H   0  0  0  0  0  0  0  0  0  0  0  0
    2.7070    2.8913   -0.4612 H   0  0  0  0  0  0  0  0  0  0  0  0
   -1.3297   -3.0296   -1.2407 H   0  0  0  0  0  0  0  0  0  0  0  0
   -3.6225   -3.7814   -0.9162 H   0  0  0  0  0  0  0  0  0  0  0  0
   -5.3273   -2.2449   -0.0642 H   0  0  0  0  0  0  0  0  0  0  0  0
   -5.9697   -0.0315    0.7346 H   0  0  0  0  0  0  0  0  0  0  0  0
   -5.3821    2.2829    1.2738 H   0  0  0  0  0  0  0  0  0  0  0  0
   -3.1020    3.0840    0.9685 H   0  0  0  0  0  0  0  0  0  0  0  0
  1  2  1  0  0  0  0
  2  3  1  0  0  0  0
  3  4  1  0  0  0  0
  4  5  1  0  0  0  0
  5  6  4  0  0  0  0
  6  7  4  0  0  0  0
  7  8  4  0  0  0  0
  8  9  4  0  0  0  0
  9 10  4  0  0  0  0
 10 11  4  0  0  0  0
 11 12  4  0  0  0  0
 12 13  2  0  0  0  0
  5 14  4  0  0  0  0
  9 14  4  0  0  0  0
 13 14  4  0  0  0  0
  8 15  1  0  0  0  0
 15 16  4  0  0  0  0
 16 17  4  0  0  0  0
 17 18  2  0  0  0  0
 18 19  4  0  0  0  0
 19 20  4  0  0  0  0
 20 21  2  0  0  0  0
 21 22  4  0  0  0  0
 10 23  1  0  0  0  0
 22 23  4  0  0  0  0
 15 24  4  0  0  0  0
 19 24  4  0  0  0  0
 23 24  4  0  0  0  0
  1 26  1  0  0  0  0
  1 27  1  0  0  0  0
  1 28  1  0  0  0  0
  2 29  1  0  0  0  0
  2 30  1  0  0  0  0
  3 31  1  0  0  0  0
  3 32  1  0  0  0  0
  6 33  1  0  0  0  0
  7 34  1  0  0  0  0
 11 35  1  0  0  0  0
 12 36  1  0  0  0  0
 13 37  1  0  0  0  0
 16 38  1  0  0  0  0
 17 39  1  0  0  0  0
 18 40  1  0  0  0  0
 20 41  1  0  0  0  0
 21 42  1  0  0  0  0
 22 43  1  0  0  0  0
M  END
