 xtb: 6.5.1 (fef0646)
          01242310033D

 23 22  0     0  0            999 V2000
   -2.0402    0.1761    0.6810 N   0  0  0  0  0  0  0  0  0  0  0  0
   -1.2773    0.3884   -0.5763 C   0  0  0  0  0  0  0  0  0  0  0  0
    0.1869    0.1543   -0.3845 C   0  0  0  0  0  0  0  0  0  0  0  0
    1.0147    1.1787    0.0519 C   0  0  0  0  0  0  0  0  0  0  0  0
    2.3596    0.9550    0.2670 C   0  0  0  0  0  0  0  0  0  0  0  0
    2.9198   -0.3036    0.0555 C   0  0  0  0  0  0  0  0  0  0  0  0
    4.3509   -0.5166    0.2935 C   0  0  0  0  0  0  0  0  0  0  0  0
    5.0604   -1.5181   -0.2099 C   0  0  0  0  0  0  0  0  0  0  0  0
    2.0793   -1.3322   -0.3672 C   0  0  0  0  0  0  0  0  0  0  0  0
    0.7343   -1.1054   -0.5807 C   0  0  0  0  0  0  0  0  0  0  0  0
   -5.4386    0.7124    0.2176 Cl  0  0  0  0  0  0  0  0  0  0  0  0
   -1.9110   -0.7865    1.0297 H   0  0  0  0  0  0  0  0  0  0  0  0
   -3.0574    0.3346    0.5545 H   0  0  0  0  0  0  0  0  0  0  0  0
   -1.7098    0.8154    1.4237 H   0  0  0  0  0  0  0  0  0  0  0  0
   -1.4409    1.4071   -0.9468 H   0  0  0  0  0  0  0  0  0  0  0  0
   -1.6563   -0.2762   -1.3616 H   0  0  0  0  0  0  0  0  0  0  0  0
    0.5940    2.1558    0.2254 H   0  0  0  0  0  0  0  0  0  0  0  0
    2.9932    1.7603    0.6013 H   0  0  0  0  0  0  0  0  0  0  0  0
    4.8458    0.2121    0.9162 H   0  0  0  0  0  0  0  0  0  0  0  0
    4.6178   -2.2511   -0.8561 H   0  0  0  0  0  0  0  0  0  0  0  0
    6.1094   -1.6263   -0.0058 H   0  0  0  0  0  0  0  0  0  0  0  0
    2.4825   -2.3203   -0.5130 H   0  0  0  0  0  0  0  0  0  0  0  0
    0.0937   -1.9121   -0.8982 H   0  0  0  0  0  0  0  0  0  0  0  0
  1  2  1  0  0  0  0
  2  3  1  0  0  0  0
  3  4  4  0  0  0  0
  4  5  4  0  0  0  0
  5  6  4  0  0  0  0
  6  7  1  0  0  0  0
  7  8  2  0  0  0  0
  6  9  4  0  0  0  0
  3 10  4  0  0  0  0
  9 10  4  0  0  0  0
  1 12  1  0  0  0  0
  1 13  1  0  0  0  0
  1 14  1  0  0  0  0
  2 15  1  0  0  0  0
  2 16  1  0  0  0  0
  4 17  1  0  0  0  0
  5 18  1  0  0  0  0
  7 19  1  0  0  0  0
  8 20  1  0  0  0  0
  8 21  1  0  0  0  0
  9 22  1  0  0  0  0
 10 23  1  0  0  0  0
M  END
