34
0.819
N            5.14380  -0.31791  -0.05210
C            3.79456  -0.92806  -0.22507
C            2.72534  -0.20444   0.58571
C            1.35767  -0.79282   0.40332
C            0.89711  -1.79305   1.24847
C           -0.34748  -2.35264   1.06531
C            0.54604  -0.38024  -0.64411
C           -0.69824  -0.93829  -0.83217
C           -1.16805  -1.92880   0.02421
N           -2.43994  -2.47715  -0.14612
N           -3.48351  -1.79921  -0.20775
C           -3.52990  -0.42298   0.02070
C           -3.02156   0.12166   1.19671
C           -3.04448   1.48237   1.40683
C           -3.57961   2.32175   0.44890
C           -4.09354   1.79492  -0.72021
C           -4.07088   0.43437  -0.93374
Cl           4.78770   3.05878  -0.95928
H            5.85835  -0.78919  -0.62257
H            5.44221  -0.35961   0.93091
H            5.12306   0.67880  -0.32646
H            3.82342  -1.98595   0.06067
H            3.51765  -0.92042  -1.28565
H            2.70528   0.85512   0.30902
H            2.99142  -0.21871   1.64762
H            1.52672  -2.12975   2.05460
H           -0.70561  -3.12130   1.72781
H            0.90099   0.38578  -1.31263
H           -1.32851  -0.61016  -1.64007
H           -2.60138  -0.53921   1.93465
H           -2.64251   1.89282   2.31886
H           -3.59643   3.38677   0.61367
H           -4.51155   2.44970  -1.46741
H           -4.46360   0.01558  -1.84388
