34
 xtb: 6.5.1 (fef0646)
N            5.14696468015353       -0.35215300331210       -0.02586962498970
C            3.79089885306581       -0.94413288153458       -0.20986018844324
C            2.71894833939869       -0.19797404311248        0.57686952141770
C            1.35195146615231       -0.78863419304967        0.39525160915591
C            0.87804658281320       -1.76157240667090        1.26531399879393
C           -0.36543766089380       -2.32384316507834        1.08299581332696
C            0.55526130026719       -0.40710761753145       -0.67585721467259
C           -0.68767249102529       -0.96849091973725       -0.86360024918318
C           -1.17075213773950       -1.93125238974396        0.01713738855172
N           -2.44282827031798       -2.47894088860447       -0.15769858167497
N           -3.48477220610425       -1.79893898591837       -0.22027103715726
C           -3.52603702547656       -0.42386575831812        0.01696148436671
C           -3.01746217312144        0.10811996885154        1.19874619683507
C           -3.03639592464866        1.46673107874156        1.42218827436571
C           -3.56835648037560        2.31678010918925        0.47193059207001
C           -4.08141037056409        1.80274650821464       -0.70335100171444
C           -4.06178662980168        0.44423421505340       -0.93062234110430
Cl           4.78024169515537        3.10067986887602       -0.97832884035137
H            5.85973796784251       -0.80424985708895       -0.61020172548872
H            5.43867128707403       -0.36501685986478        0.93948848806023
H            5.12903396541417        0.66678258606601       -0.32422378713000
H            3.81768908987635       -1.98949375149005        0.06961891849164
H            3.52072478948655       -0.92858104139480       -1.28236308654524
H            2.70494131643402        0.85535849915200        0.30028976017032
H            2.98697291535288       -0.21082664366311        1.64581509687524
H            1.51752617828007       -2.11318703533671        2.06545139509074
H           -0.71401614598771       -3.10645281069353        1.73876420027084
H            0.90658904757236        0.37187806919897       -1.32730275691358
H           -1.32252916059952       -0.62562879872590       -1.65419114526750
H           -2.60143910660337       -0.54563390362325        1.93369001379306
H           -2.64018551988766        1.88530859583345        2.32467511396268
H           -3.59262577829810        3.38486808923678        0.62349409943051
H           -4.50715589827456        2.45453210713187       -1.46077318128928
H           -4.46079856726291        0.02148689562522       -1.84442799863110
