34
 xtb: 6.5.1 (fef0646)
N            4.33066047520203        1.41780079333859        0.75873319594815
C            2.94790604791766        0.87537005687586        0.88731683302837
C            2.81155786361256       -0.51473268145742        0.27623349631635
C            1.41280263287835       -1.04943641951696        0.36100703840978
C            0.50734957391306       -0.82489678549715       -0.66678795738112
C           -0.78894575251107       -1.27795217810595       -0.57323545176498
C            0.98186019094722       -1.72912957913766        1.49186309593961
C           -0.31469683266530       -2.18210005591335        1.59070889338337
C           -1.22222117462879       -1.96022797183725        0.55943466976847
N           -2.54524828779786       -2.38946114637882        0.67111799492138
N           -3.52784335070641       -1.63661084345271        0.53158178291928
C           -3.42734262991947       -0.25193169868096        0.38089454655866
C           -2.77315566842633        0.51931023173694        1.33880672693823
C           -2.64742288747037        1.88099297635509        1.17478369088590
C           -3.17771086131920        2.49552047388009        0.05587481749558
C           -3.83394684456256        1.74286274778202       -0.90075159372042
C           -3.95875911745804        0.38044471149741       -0.74141681156346
Cl           4.98692077376596        1.45932754365918       -2.77836519506023
H            4.41631905658687        2.36073691276430        1.14763134440910
H            4.59589374520931        1.47231928564782       -0.24949725990974
H            5.01329531266540        0.80558812626805        1.21483089645921
H            2.23412058490824        1.55592332467055        0.40143097996048
H            2.65881266909788        0.84450113527664        1.93577201020633
H            3.50036054726732       -1.20879190623600        0.76199426835727
H            3.12898599509047       -0.49178594086902       -0.77955401667736
H            0.82950853382044       -0.30061025482016       -1.55309456641622
H           -1.48793704301546       -1.11605497513165       -1.37813674223952
H            1.67458062304130       -1.88436347225253        2.29875287895279
H           -0.64661757461001       -2.69337837852936        2.47448938998223
H           -2.29665961838189        0.03282446273605        2.16857622905472
H           -2.07101867521242        2.46746100213281        1.87136928900522
H           -3.07606862352176        3.56066431712105       -0.08922711565128
H           -4.30585566598331        2.22301582385315       -1.74643973331174
H           -4.52211522271693       -0.21228545287909       -1.44294420930927
