 xtb: 6.5.1 (fef0646)
          01242316593D

 34 34  0     0  0            999 V2000
    5.1438   -0.3179   -0.0521 N   0  0  0  0  0  0  0  0  0  0  0  0
    3.7946   -0.9281   -0.2251 C   0  0  0  0  0  0  0  0  0  0  0  0
    2.7253   -0.2045    0.5857 C   0  0  0  0  0  0  0  0  0  0  0  0
    1.3577   -0.7928    0.4033 C   0  0  0  0  0  0  0  0  0  0  0  0
    0.8971   -1.7931    1.2485 C   0  0  0  0  0  0  0  0  0  0  0  0
   -0.3475   -2.3526    1.0653 C   0  0  0  0  0  0  0  0  0  0  0  0
    0.5460   -0.3802   -0.6441 C   0  0  0  0  0  0  0  0  0  0  0  0
   -0.6982   -0.9383   -0.8322 C   0  0  0  0  0  0  0  0  0  0  0  0
   -1.1681   -1.9288    0.0242 C   0  0  0  0  0  0  0  0  0  0  0  0
   -2.4400   -2.4771   -0.1461 N   0  0  0  0  0  0  0  0  0  0  0  0
   -3.4835   -1.7992   -0.2077 N   0  0  0  0  0  0  0  0  0  0  0  0
   -3.5299   -0.4230    0.0207 C   0  0  0  0  0  0  0  0  0  0  0  0
   -3.0216    0.1217    1.1967 C   0  0  0  0  0  0  0  0  0  0  0  0
   -3.0445    1.4824    1.4068 C   0  0  0  0  0  0  0  0  0  0  0  0
   -3.5796    2.3218    0.4489 C   0  0  0  0  0  0  0  0  0  0  0  0
   -4.0935    1.7949   -0.7202 C   0  0  0  0  0  0  0  0  0  0  0  0
   -4.0709    0.4344   -0.9337 C   0  0  0  0  0  0  0  0  0  0  0  0
    4.7877    3.0588   -0.9593 Cl  0  0  0  0  0  0  0  0  0  0  0  0
    5.8583   -0.7892   -0.6226 H   0  0  0  0  0  0  0  0  0  0  0  0
    5.4422   -0.3596    0.9309 H   0  0  0  0  0  0  0  0  0  0  0  0
    5.1231    0.6788   -0.3265 H   0  0  0  0  0  0  0  0  0  0  0  0
    3.8234   -1.9860    0.0607 H   0  0  0  0  0  0  0  0  0  0  0  0
    3.5176   -0.9204   -1.2857 H   0  0  0  0  0  0  0  0  0  0  0  0
    2.7053    0.8551    0.3090 H   0  0  0  0  0  0  0  0  0  0  0  0
    2.9914   -0.2187    1.6476 H   0  0  0  0  0  0  0  0  0  0  0  0
    1.5267   -2.1298    2.0546 H   0  0  0  0  0  0  0  0  0  0  0  0
   -0.7056   -3.1213    1.7278 H   0  0  0  0  0  0  0  0  0  0  0  0
    0.9010    0.3858   -1.3126 H   0  0  0  0  0  0  0  0  0  0  0  0
   -1.3285   -0.6102   -1.6401 H   0  0  0  0  0  0  0  0  0  0  0  0
   -2.6014   -0.5392    1.9347 H   0  0  0  0  0  0  0  0  0  0  0  0
   -2.6425    1.8928    2.3189 H   0  0  0  0  0  0  0  0  0  0  0  0
   -3.5964    3.3868    0.6137 H   0  0  0  0  0  0  0  0  0  0  0  0
   -4.5115    2.4497   -1.4674 H   0  0  0  0  0  0  0  0  0  0  0  0
   -4.4636    0.0156   -1.8439 H   0  0  0  0  0  0  0  0  0  0  0  0
  1  2  1  0  0  0  0
  2  3  1  0  0  0  0
  3  4  1  0  0  0  0
  4  5  4  0  0  0  0
  5  6  4  0  0  0  0
  4  7  4  0  0  0  0
  7  8  4  0  0  0  0
  6  9  4  0  0  0  0
  8  9  4  0  0  0  0
  9 10  1  0  0  0  0
 10 11  2  0  0  0  0
 11 12  1  0  0  0  0
 12 13  4  0  0  0  0
 13 14  4  0  0  0  0
 14 15  4  0  0  0  0
 15 16  4  0  0  0  0
 12 17  4  0  0  0  0
 16 17  4  0  0  0  0
  1 19  1  0  0  0  0
  1 20  1  0  0  0  0
  1 21  1  0  0  0  0
  2 22  1  0  0  0  0
  2 23  1  0  0  0  0
  3 24  1  0  0  0  0
  3 25  1  0  0  0  0
  5 26  1  0  0  0  0
  6 27  1  0  0  0  0
  7 28  1  0  0  0  0
  8 29  1  0  0  0  0
 13 30  1  0  0  0  0
 14 31  1  0  0  0  0
 15 32  1  0  0  0  0
 16 33  1  0  0  0  0
 17 34  1  0  0  0  0
M  END
