19
 xtb: 6.5.1 (fef0646)
N           -1.29911260838190       -1.71981674370880        0.73049106147007
C           -0.02334937346732       -1.91608124624254       -0.02863351653947
C            0.87224060194059       -0.71665935155193        0.03805803531979
C            0.36962634101146        0.54626111610667       -0.23680402964710
C            1.17930501839315        1.66127091657343       -0.17322358521111
C            2.51148728202386        1.52828746931011        0.16556865894623
C            3.02853514439822        0.27744913306122        0.43677400079262
C            2.21576666644223       -0.83775244191294        0.37387696584893
Cl          -3.04933111596939        0.61101165838771       -0.53922022509702
H           -1.83802449842920       -1.03997894849604        0.42753646176166
H           -0.99753206158122       -1.57559793388350        1.76913053531254
H           -1.79636663767625       -2.66930689169413        0.79013733953093
H           -0.26187331423455       -2.13097155870947       -1.08080704436556
H            0.56786914893939       -2.82139175735851        0.29349278935207
H           -0.67741372016365        0.62526999582932       -0.49892916112914
H            0.75095294966012        2.62343824585105       -0.39483555399690
H            3.12550460776451        2.40657759341337        0.21395319011610
H            4.06746362893715        0.18865610972514        0.71043190166455
H            2.63517869283781       -1.80790789098713        0.59811982100569
