  37

 N          0.9293300000       -1.4735300000        1.2993400000
 C          2.1746200000       -0.7736200000        1.6288700000
 C          3.3654300000       -1.3291200000        0.8489800000
 O          4.5675600000       -0.7038900000        1.3040300000
 C          5.2341200000       -1.2171300000        2.3904300000
 C          6.3605600000       -0.4762600000        2.8365200000
 C          6.7608000000        0.7440200000        2.2517200000
 C          7.8829500000        1.4433800000        2.7069100000
 C          7.1300700000       -0.9742200000        3.9166700000
 C          6.7627300000       -2.1840600000        4.5518400000
 C          5.6317200000       -2.8755800000        4.1132700000
 C          4.8760800000       -2.4000100000        3.0423100000
 C          7.5367600000       -2.6821400000        5.6060300000
 C          8.6724300000       -1.9984000000        6.0391500000
 C          9.0541300000       -0.7953800000        5.4344300000
 C         10.1948600000       -0.1022800000        5.8630100000
 C         10.5653000000        1.0966600000        5.2566200000
 C          9.7994400000        1.6177600000        4.2140600000
 C          8.6569700000        0.9420200000        3.7589800000
 C          8.2783700000       -0.2746100000        4.3706000000
 Cl         0.0374300000       -1.4745700000       -1.4168400000
 H          0.0830400000       -1.0531200000        1.6924500000
 H          0.9122400000       -2.4848300000        1.4491000000
 H          0.7279300000       -1.3985300000        0.2556400000
 H          2.3145700000       -0.8673900000        2.7096000000
 H          2.0269300000        0.2871000000        1.4022600000
 H          3.2596500000       -1.0682100000       -0.2099200000
 H          3.4246700000       -2.4226500000        0.8719200000
 H          6.1947000000        1.1663800000        1.4233000000
 H          8.1504600000        2.3810700000        2.2240300000
 H          5.3363200000       -3.8064900000        4.5934000000
 H          4.0265300000       -3.0014100000        2.7443100000
 H          7.2690200000       -3.6154200000        6.0966700000
 H          9.2585900000       -2.4174800000        6.8540400000
 H         10.8067300000       -0.4935600000        6.6731200000
 H         11.4534900000        1.6234300000        5.5957400000
 H         10.1068000000        2.5544500000        3.7544500000
