36
0.365
N           -4.87080  -0.04920  -1.64030
C           -5.22481   1.17421  -0.86532
C           -4.54428   1.20600   0.50142
C           -3.05226   1.08766   0.41219
C           -2.43458  -0.14841   0.52984
C           -1.06732  -0.27042   0.41681
C           -0.26770   0.84653   0.17456
C            1.18048   0.75715   0.04028
C            1.92286  -0.31092   0.36400
C            3.36977  -0.40023   0.22059
C            4.10440   0.53517  -0.50750
C            5.47545   0.43024  -0.63772
F            6.16958   1.35310  -1.35956
C            6.13403  -0.62529  -0.03149
C            5.42762  -1.56521   0.69005
C            4.05993  -1.45751   0.81467
C           -0.89766   2.08420   0.04212
C           -2.26530   2.20064   0.15837
Cl          -4.89099  -2.72967   0.66217
H           -3.87713  -0.03678  -1.90648
H           -5.42858  -0.14442  -2.50001
H           -5.01687  -0.89378  -1.06245
H           -6.31372   1.23259  -0.74658
H           -4.94136   2.06186  -1.44249
H           -4.92807   0.38805   1.12070
H           -4.80238   2.12484   1.03997
H           -3.04295  -1.02154   0.69736
H           -0.61518  -1.24303   0.49758
H            1.67702   1.63651  -0.32900
H            1.43345  -1.17096   0.78455
H            3.61190   1.35222  -0.99978
H            7.20210  -0.69779  -0.13735
H            5.94775  -2.38569   1.15678
H            3.51029  -2.19182   1.37863
H           -0.29858   2.95781  -0.15212
H           -2.73728   3.16256   0.04951
