23

N          0.95739       -0.03042        0.08641
C          2.43923       -0.04239        0.08141
C          2.94974        1.18367        0.82266
C          4.47802        1.21198        0.83992
C          5.00157        2.44088        1.58270
C          6.52932        2.46934        1.59977
C          7.05016        3.69105        2.33779
H          0.57924       -0.84936       -0.40857
H          0.58314        0.80764       -0.37806
H          0.58075       -0.05047        1.04362
H          2.75391       -0.04795       -0.96628
H          2.75161       -0.97263        0.56510
H          2.57008        1.18186        1.85199
H          2.57033        2.09436        0.34244
H          4.85709        1.21526       -0.18928
H          4.85696        0.30218        1.32137
H          4.62229        2.43794        2.61191
H          4.62239        3.35061        1.10132
H          6.91345        2.47658        0.57301
H          6.91357        1.56383        2.08372
H          6.70720        4.61371        1.85866
H          8.14449        3.69536        2.34027
H          6.70749        3.69596        3.37759
