  23

 N          0.9068777892        0.0565033517        0.0941924826
 C          2.4062176670        0.0639531301        0.0784638281
 C          2.9229320130        0.5349723099       -1.2723524283
 C          4.4544914226        0.5441649028       -1.2978548995
 C          4.9880916072        1.0156541345       -2.6497294807
 C          6.5152018230        1.0276695528       -2.6846344624
 C          7.0382618073        1.4989284607       -4.0355829961
 H          0.5393356920       -0.2595906445        1.0003001232
 H          0.5567231666       -0.5686320704       -0.6440353505
 H          0.5545999552        1.0041289633       -0.0962526150
 H          2.7577377928       -0.9469755388        0.2885537181
 H          2.7555543194        0.7265513271        0.8713212851
 H          2.5625486662        1.5444100693       -1.4797523699
 H          2.5629475924       -0.1269911354       -2.0623511904
 H          4.8280840654       -0.4604968039       -1.0943679170
 H          4.8277976618        1.2045583911       -0.5137356133
 H          4.6178716232        2.0218639833       -2.8562558687
 H          4.6177186112        0.3562221709       -3.4372286018
 H          6.8894934781        0.0226211349       -2.4807101365
 H          6.8896797240        1.6876721113       -1.8998024879
 H          6.6931890573        0.8421391648       -4.8306019487
 H          8.1244905439        1.5005435657       -4.0406901855
 H          6.6934439210        2.5078194687       -4.2494528846
