28
 xtb: 6.5.1 (fef0646)
N           -2.12324043651336       -0.24872541985047        1.33922380296612
C           -1.23408711140179       -1.41187108213247        1.01999108730614
C           -0.32231956475461       -1.13152115313042       -0.18367399219424
C            1.12147968932383       -0.72847639256697        0.17257543467709
C            1.19813878010979        0.54811133791465        1.04255922251099
C            2.65352928427469        0.93084837129108        1.36659236893445
C            3.48381871785628        1.10415382038527        0.08316319196092
C            3.42558714860059       -0.16609426253692       -0.78202695872909
C            1.97021086317218       -0.54048186427387       -1.10893297324866
Cl          -3.77247952809726        0.63022320648623       -1.21867291897503
H           -2.68430849078937       -0.50008283892687        2.22334272565765
H           -2.66111935610305        0.01892683980207        0.63303243536709
H           -1.49769220737861        0.53816138230879        1.69974600131207
H           -1.86563606306062       -2.29283517665235        0.82531430862174
H           -0.59439638572907       -1.76176625152222        1.88961986502706
H           -0.77897562472469       -0.33721278106859       -0.76369374417144
H           -0.28526414670297       -2.00306392157415       -0.84044796473368
H            1.57940330293937       -1.54957320561814        0.75457165847246
H            0.63487762608648        0.40816607256546        1.97520382546779
H            0.71118312981605        1.36837497297836        0.51698516004805
H            3.11477614984708        0.14750536399106        1.98563246102129
H            2.69626363530766        1.84281103202638        1.97913809765295
H            4.52587386406425        1.36914042522794        0.31560924915141
H            3.09116622711324        1.95460524149265       -0.49142879345772
H            3.90178130425833       -0.99329104245122       -0.24843800679023
H            4.00904828300174       -0.03783244375942       -1.70697607381483
H            1.92142678558436       -1.44081984197147       -1.73072998033519
H            1.51124468006971        0.25424141170578       -1.71153542280429
