 xtb: 6.5.1 (fef0646)
          01242317083D

 28 27  0     0  0            999 V2000
   -2.0421   -0.2881    1.4662 N   0  0  0  0  0  0  0  0  0  0  0  0
   -1.2007   -1.4495    1.0510 C   0  0  0  0  0  0  0  0  0  0  0  0
   -0.3191   -1.1365   -0.1647 C   0  0  0  0  0  0  0  0  0  0  0  0
    1.1266   -0.7290    0.1783 C   0  0  0  0  0  0  0  0  0  0  0  0
    1.2064    0.5459    1.0507 C   0  0  0  0  0  0  0  0  0  0  0  0
    2.6627    0.9311    1.3670 C   0  0  0  0  0  0  0  0  0  0  0  0
    3.4860    1.1061    0.0795 C   0  0  0  0  0  0  0  0  0  0  0  0
    3.4241   -0.1634   -0.7865 C   0  0  0  0  0  0  0  0  0  0  0  0
    1.9673   -0.5374   -1.1078 C   0  0  0  0  0  0  0  0  0  0  0  0
   -3.8739    0.6865   -1.3559 Cl  0  0  0  0  0  0  0  0  0  0  0  0
   -2.6509   -0.5149    2.2655 H   0  0  0  0  0  0  0  0  0  0  0  0
   -2.6474    0.0151    0.6836 H   0  0  0  0  0  0  0  0  0  0  0  0
   -1.4669    0.5227    1.7309 H   0  0  0  0  0  0  0  0  0  0  0  0
   -1.8638   -2.2964    0.8301 H   0  0  0  0  0  0  0  0  0  0  0  0
   -0.5790   -1.7869    1.8887 H   0  0  0  0  0  0  0  0  0  0  0  0
   -0.7831   -0.3376   -0.7527 H   0  0  0  0  0  0  0  0  0  0  0  0
   -0.2856   -2.0015   -0.8388 H   0  0  0  0  0  0  0  0  0  0  0  0
    1.5829   -1.5497    0.7548 H   0  0  0  0  0  0  0  0  0  0  0  0
    0.6400    0.4065    1.9793 H   0  0  0  0  0  0  0  0  0  0  0  0
    0.7120    1.3678    0.5210 H   0  0  0  0  0  0  0  0  0  0  0  0
    3.1187    0.1477    1.9851 H   0  0  0  0  0  0  0  0  0  0  0  0
    2.6994    1.8428    1.9793 H   0  0  0  0  0  0  0  0  0  0  0  0
    4.5267    1.3699    0.3132 H   0  0  0  0  0  0  0  0  0  0  0  0
    3.0908    1.9552   -0.4916 H   0  0  0  0  0  0  0  0  0  0  0  0
    3.9020   -0.9927   -0.2506 H   0  0  0  0  0  0  0  0  0  0  0  0
    4.0074   -0.0367   -1.7089 H   0  0  0  0  0  0  0  0  0  0  0  0
    1.9198   -1.4397   -1.7307 H   0  0  0  0  0  0  0  0  0  0  0  0
    1.5094    0.2553   -1.7101 H   0  0  0  0  0  0  0  0  0  0  0  0
  1  2  1  0  0  0  0
  2  3  1  0  0  0  0
  3  4  1  0  0  0  0
  4  5  1  0  0  0  0
  5  6  1  0  0  0  0
  6  7  1  0  0  0  0
  7  8  1  0  0  0  0
  4  9  1  0  0  0  0
  8  9  1  0  0  0  0
  1 11  1  0  0  0  0
  1 12  1  0  0  0  0
  1 13  1  0  0  0  0
  2 14  1  0  0  0  0
  2 15  1  0  0  0  0
  3 16  1  0  0  0  0
  3 17  1  0  0  0  0
  4 18  1  0  0  0  0
  5 19  1  0  0  0  0
  5 20  1  0  0  0  0
  6 21  1  0  0  0  0
  6 22  1  0  0  0  0
  7 23  1  0  0  0  0
  7 24  1  0  0  0  0
  8 25  1  0  0  0  0
  8 26  1  0  0  0  0
  9 27  1  0  0  0  0
  9 28  1  0  0  0  0
M  END
