 xtb: 6.5.1 (fef0646)
          01242310103D

 28 27  0     0  0            999 V2000
   -2.5762   -0.4478   -0.0265 N   0  0  0  0  0  0  0  0  0  0  0  0
   -1.1674    0.0422   -0.0055 C   0  0  0  0  0  0  0  0  0  0  0  0
   -0.2073   -0.9478   -0.6491 C   0  0  0  0  0  0  0  0  0  0  0  0
    1.2467   -0.4443   -0.7377 C   0  0  0  0  0  0  0  0  0  0  0  0
    2.1222   -1.3964   -1.5887 C   0  0  0  0  0  0  0  0  0  0  0  0
    3.5668   -0.8819   -1.7081 C   0  0  0  0  0  0  0  0  0  0  0  0
    4.1960   -0.6796   -0.3191 C   0  0  0  0  0  0  0  0  0  0  0  0
    3.3389    0.2645    0.5406 C   0  0  0  0  0  0  0  0  0  0  0  0
    1.8936   -0.2484    0.6557 C   0  0  0  0  0  0  0  0  0  0  0  0
   -4.6578    1.9015    1.5009 Cl  0  0  0  0  0  0  0  0  0  0  0  0
   -3.2275    0.2267    0.4169 H   0  0  0  0  0  0  0  0  0  0  0  0
   -2.6638   -1.3466    0.4772 H   0  0  0  0  0  0  0  0  0  0  0  0
   -2.9002   -0.6067   -0.9952 H   0  0  0  0  0  0  0  0  0  0  0  0
   -0.8679    0.2437    1.0274 H   0  0  0  0  0  0  0  0  0  0  0  0
   -1.1055    1.0083   -0.5224 H   0  0  0  0  0  0  0  0  0  0  0  0
   -0.5681   -1.1946   -1.6552 H   0  0  0  0  0  0  0  0  0  0  0  0
   -0.2269   -1.8949   -0.0983 H   0  0  0  0  0  0  0  0  0  0  0  0
    1.2376    0.5368   -1.2396 H   0  0  0  0  0  0  0  0  0  0  0  0
    1.6716   -1.5440   -2.5791 H   0  0  0  0  0  0  0  0  0  0  0  0
    2.1221   -2.3868   -1.1185 H   0  0  0  0  0  0  0  0  0  0  0  0
    3.5683    0.0725   -2.2501 H   0  0  0  0  0  0  0  0  0  0  0  0
    4.1752   -1.5649   -2.3175 H   0  0  0  0  0  0  0  0  0  0  0  0
    5.2244   -0.3024   -0.4072 H   0  0  0  0  0  0  0  0  0  0  0  0
    4.2836   -1.6507    0.1849 H   0  0  0  0  0  0  0  0  0  0  0  0
    3.3336    1.2638    0.0866 H   0  0  0  0  0  0  0  0  0  0  0  0
    3.7851    0.3991    1.5360 H   0  0  0  0  0  0  0  0  0  0  0  0
    1.2891    0.4307    1.2699 H   0  0  0  0  0  0  0  0  0  0  0  0
    1.8834   -1.2081    1.1855 H   0  0  0  0  0  0  0  0  0  0  0  0
  1  2  1  0  0  0  0
  2  3  1  0  0  0  0
  3  4  1  0  0  0  0
  4  5  1  0  0  0  0
  5  6  1  0  0  0  0
  6  7  1  0  0  0  0
  7  8  1  0  0  0  0
  4  9  1  0  0  0  0
  8  9  1  0  0  0  0
  1 11  1  0  0  0  0
  1 12  1  0  0  0  0
  1 13  1  0  0  0  0
  2 14  1  0  0  0  0
  2 15  1  0  0  0  0
  3 16  1  0  0  0  0
  3 17  1  0  0  0  0
  4 18  1  0  0  0  0
  5 19  1  0  0  0  0
  5 20  1  0  0  0  0
  6 21  1  0  0  0  0
  6 22  1  0  0  0  0
  7 23  1  0  0  0  0
  7 24  1  0  0  0  0
  8 25  1  0  0  0  0
  8 26  1  0  0  0  0
  9 27  1  0  0  0  0
  9 28  1  0  0  0  0
M  END
