12
 xtb: 6.5.1 (fef0646)
N            0.60536054427862        1.29083644287911        0.56009264009442
C            1.48227143822334        0.98086400840036       -0.58876217956472
C            1.70696771561835       -0.52113745329914       -0.67360430919950
F            1.91505598372759       -1.03496966039100        0.54735201999443
Cl          -2.60623993376115       -0.27375095877840       -0.02781755918474
H           -0.37898759208930        0.84773245130100        0.40922204879949
H            0.41395535824056        2.29730658810909        0.68782796966536
H            0.93121098979131        0.88466771423768        1.42470209250362
H            2.41605948717913        1.46562858006783       -0.41404290244085
H            1.05170685401167        1.36318081580961       -1.51484002482187
H            2.45244340731861       -0.79501042786004       -1.37826427607874
H            0.74991755003135       -1.03445510873935       -0.99237774651911
