 xtb: 6.5.1 (fef0646)
          01232313413D

 16 15  0     0  0            999 V2000
    2.1136    0.0010    0.3554 N   0  0  0  0  0  0  0  0  0  0  0  0
    0.7071   -0.0060    0.3325 C   0  0  0  0  0  0  0  0  0  0  0  0
    0.0135   -1.1866    0.0914 C   0  0  0  0  0  0  0  0  0  0  0  0
   -1.3657   -1.1739   -0.0004 C   0  0  0  0  0  0  0  0  0  0  0  0
   -2.0660    0.0114    0.1473 C   0  0  0  0  0  0  0  0  0  0  0  0
   -1.3770    1.1886    0.3864 C   0  0  0  0  0  0  0  0  0  0  0  0
    0.0018    1.1835    0.4797 C   0  0  0  0  0  0  0  0  0  0  0  0
    3.2131    0.6154   -2.3699 Cl  0  0  0  0  0  0  0  0  0  0  0  0
    2.5239   -0.8960    0.5791 H   0  0  0  0  0  0  0  0  0  0  0  0
    2.6819    0.3368   -1.1765 H   0  0  0  0  0  0  0  0  0  0  0  0
    2.5104    0.7525    0.9035 H   0  0  0  0  0  0  0  0  0  0  0  0
    0.5604   -2.1109   -0.0273 H   0  0  0  0  0  0  0  0  0  0  0  0
   -1.8961   -2.0956   -0.1874 H   0  0  0  0  0  0  0  0  0  0  0  0
   -3.1428    0.0179    0.0759 H   0  0  0  0  0  0  0  0  0  0  0  0
   -1.9156    2.1173    0.5012 H   0  0  0  0  0  0  0  0  0  0  0  0
    0.5408    2.1019    0.6626 H   0  0  0  0  0  0  0  0  0  0  0  0
  1  2  1  0  0  0  0
  2  3  4  0  0  0  0
  3  4  4  0  0  0  0
  4  5  4  0  0  0  0
  5  6  4  0  0  0  0
  2  7  4  0  0  0  0
  6  7  4  0  0  0  0
  1  9  1  0  0  0  0
  8 10  1  0  0  0  0
  1 11  1  0  0  0  0
  3 12  1  0  0  0  0
  4 13  1  0  0  0  0
  5 14  1  0  0  0  0
  6 15  1  0  0  0  0
  7 16  1  0  0  0  0
M  END
