14
0.707
N           -0.18803  -1.84324  -0.05611
C            1.02156  -1.06506  -0.45206
C            1.29147   0.10864   0.48814
C            2.42983   0.88948   0.14872
C            3.40151   1.54849  -0.15025
Cl          -2.89500   0.39370   0.01594
H           -0.37996  -2.61953  -0.70448
H           -1.02142  -1.23031  -0.03929
H           -0.07916  -2.23771   0.88799
H            0.90535  -0.69356  -1.47692
H            1.89724  -1.72431  -0.47970
H            1.40522  -0.26702   1.51275
H            0.40682   0.75661   0.51993
H            4.25582   2.12730  -0.41311
