 xtb: 6.5.1 (fef0646)
          01242310103D

 18 16  0     0  0            999 V2000
   -2.6013    1.6626    1.3947 N   0  0  0  0  0  0  0  0  0  0  0  0
   -1.1823    1.5702    1.8329 C   0  0  0  0  0  0  0  0  0  0  0  0
   -0.2183    1.3746    0.6671 C   0  0  0  0  0  0  0  0  0  0  0  0
   -0.4017    0.0394   -0.0525 C   0  0  0  0  0  0  0  0  0  0  0  0
    0.6203   -0.1743   -1.1557 C   0  0  0  0  0  0  0  0  0  0  0  0
    2.4197   -0.2598   -0.4923 Br  0  0  0  0  0  0  0  0  0  0  0  0
   -3.7094   -1.3263   -0.0603 Cl  0  0  0  0  0  0  0  0  0  0  0  0
   -2.7254    2.4173    0.7007 H   0  0  0  0  0  0  0  0  0  0  0  0
   -3.2414    1.8578    2.1869 H   0  0  0  0  0  0  0  0  0  0  0  0
   -2.9187    0.7840    0.9537 H   0  0  0  0  0  0  0  0  0  0  0  0
   -1.0723    0.7452    2.5470 H   0  0  0  0  0  0  0  0  0  0  0  0
   -0.9194    2.4784    2.3905 H   0  0  0  0  0  0  0  0  0  0  0  0
    0.8185    1.4519    1.0188 H   0  0  0  0  0  0  0  0  0  0  0  0
   -0.3398    2.1947   -0.0505 H   0  0  0  0  0  0  0  0  0  0  0  0
   -1.4182   -0.0255   -0.4624 H   0  0  0  0  0  0  0  0  0  0  0  0
   -0.3250   -0.7788    0.6752 H   0  0  0  0  0  0  0  0  0  0  0  0
    0.5860    0.6390   -1.8840 H   0  0  0  0  0  0  0  0  0  0  0  0
    0.4396   -1.1044   -1.7007 H   0  0  0  0  0  0  0  0  0  0  0  0
  1  2  1  0  0  0  0
  2  3  1  0  0  0  0
  3  4  1  0  0  0  0
  4  5  1  0  0  0  0
  5  6  1  0  0  0  0
  1  8  1  0  0  0  0
  1  9  1  0  0  0  0
  1 10  1  0  0  0  0
  2 11  1  0  0  0  0
  2 12  1  0  0  0  0
  3 13  1  0  0  0  0
  3 14  1  0  0  0  0
  4 15  1  0  0  0  0
  4 16  1  0  0  0  0
  5 17  1  0  0  0  0
  5 18  1  0  0  0  0
M  END
