 xtb: 6.5.1 (fef0646)
          02032318073D

 12 11  0     0  0            999 V2000
   -2.3497    0.0192   -0.0747 N   0  0  0  0  0  0  0  0  0  0  0  0
   -0.9497   -0.3772    0.2847 C   0  0  0  0  0  0  0  0  0  0  0  0
    0.1269    0.4892   -0.3765 C   0  0  0  0  0  0  0  0  0  0  0  0
    1.4431    0.0945   -0.0424 C   0  0  0  0  0  0  0  0  0  0  0  0
    2.5141   -0.2377    0.2371 N   0  0  0  0  0  0  0  0  0  0  0  0
   -2.5360    0.9833    0.2126 H   0  0  0  0  0  0  0  0  0  0  0  0
   -3.0306   -0.5893    0.3879 H   0  0  0  0  0  0  0  0  0  0  0  0
   -2.4947   -0.0501   -1.0852 H   0  0  0  0  0  0  0  0  0  0  0  0
   -0.7927   -1.4295    0.0061 H   0  0  0  0  0  0  0  0  0  0  0  0
   -0.8327   -0.3338    1.3773 H   0  0  0  0  0  0  0  0  0  0  0  0
   -0.0077    1.5403   -0.0892 H   0  0  0  0  0  0  0  0  0  0  0  0
    0.0179    0.4554   -1.4685 H   0  0  0  0  0  0  0  0  0  0  0  0
  1  2  1  0  0  0  0
  2  3  1  0  0  0  0
  3  4  1  0  0  0  0
  4  5  3  0  0  0  0
  1  6  1  0  0  0  0
  1  7  1  0  0  0  0
  1  8  1  0  0  0  0
  2  9  1  0  0  0  0
  2 10  1  0  0  0  0
  3 11  1  0  0  0  0
  3 12  1  0  0  0  0
M  CHG  1   1   1
M  END
