37
 xtb: 6.5.1 (fef0646)
N            4.56188143931333        0.47612622298152       -0.29484719343207
C            4.42936612621144       -0.36944876879146        0.92227137136438
C            3.64066022799857        0.34767724999725        2.01260193321301
O            2.39902830182200        0.86752334270775        1.54606573462035
C            1.40102532731620       -0.05879599188608        1.30816262305113
C            0.20387206626947        0.42665528412982        0.71630316287970
C            0.04261078067782        1.80556206727918        0.41481893808529
C           -1.08445999349946        2.27414617579416       -0.17290986520172
C           -0.84355166460780       -0.46916338913480        0.40416769865829
C           -0.71727624566752       -1.84710032635468        0.69918652430613
C            0.46086247670291       -2.29487119858760        1.31052694527775
C            1.48174673942112       -1.42920655259608        1.60611832037004
C           -1.78893056121870       -2.72606404988668        0.36683845645123
C           -2.91637378125413       -2.26633974945046       -0.22613647184827
C           -3.07590747871180       -0.88167235614513       -0.53934029931594
C           -4.22563316469205       -0.38014469483911       -1.15356636817600
C           -4.34342259390256        0.96483763322321       -1.44054862887477
C           -3.32872305779325        1.84549846756771       -1.12680916268051
C           -2.15715371452502        1.39577787760626       -0.51255751655205
C           -2.02909520334553        0.01656892242685       -0.21632856805729
Cl           1.77312705957060        0.73306064573581       -2.16722041715550
H            5.22838661271785        0.05411670870469       -0.94916760340419
H            4.99165680252466        1.40597688375697       -0.00156622922653
H            3.68865989957678        0.64538999205135       -0.70361755232259
H            5.43240576785994       -0.64768024162727        1.35152730771392
H            3.96065320446892       -1.30107537047399        0.67268608379630
H            4.19721023194477        1.21885598576681        2.40091686032691
H            3.44394015662018       -0.27518413926353        2.90929988251380
H            0.84679835538194        2.47846558349196        0.66956545678958
H           -1.18883096635360        3.32750709141265       -0.38327656961773
H            0.56344919353068       -3.34200910059953        1.52822908553774
H            2.36838022383680       -1.81524548096407        2.07298558391178
H           -1.67861080194955       -3.77260920499041        0.57902619729601
H           -3.71164766535875       -2.94252454551199       -0.48039681609102
H           -5.02514631486403       -1.05368372476969       -1.39855804351555
H           -5.24466692019934        1.33835124295506       -1.90063726255007
H           -3.43646481713720        2.89925439217313       -1.33870147516012
