  18

 N         -0.8589007618       -1.7156990335       -0.3708039951
 C          0.3990966448       -1.4277443069        0.3085648807
 C          1.1407364253       -0.2462088560       -0.3070406749
 C          2.4610158974        0.0660002351        0.3975867103
 C          3.1872101032        1.2540256652       -0.2148782910
 Cl        -2.5110374016        1.1120444712        0.2205502473
 H         -1.2914184665       -2.5512592644        0.0105159195
 H         -0.6778828643       -1.9132178597       -1.3486479423
 H         -1.8573899765       -0.0309839515       -0.0179400003
 H          1.0464480688       -2.3149580322        0.3042828625
 H          0.1905075447       -1.2183330919        1.3645998167
 H          0.4948955983        0.6389550739       -0.2911463197
 H          1.3252067107       -0.4435468002       -1.3694073528
 H          3.1037379883       -0.8236781548        0.3733854509
 H          2.2688987714        0.2487704923        1.4627118785
 H          3.4136807307        1.0779251771       -1.2679295337
 H          4.1304812134        1.4652076675        0.2931783764
 H          2.5774390201        2.1577527533       -0.1640439186
          18
        -22.14675515
 N         -0.5531968727       -1.2242009516       -0.0015214917
 C          0.3526848348       -0.0846228240       -0.0200203431
 C          1.8239146960       -0.4836283605        0.0029254010
 C          2.7689900653        0.7183032350       -0.0130940089
 C          4.2354778302        0.3145042073        0.0173722623
 Cl        -3.4680588883        0.3753085888        0.0049273664
 H         -0.3630329727       -1.7919276423        0.8167855750
 H         -0.3614314993       -1.8218257874       -0.7984096002
 H         -2.2989498267       -0.2766048937        0.0029750461
 H          0.1252229134        0.5654557296        0.8344884234
 H          0.1413215845        0.5251149768       -0.9067426421
 H          2.0401873972       -1.1361873649       -0.8507215186
 H          2.0227595693       -1.0987134264        0.8883592329
 H          2.5390238738        1.3715871658        0.8390080327
 H          2.5634569447        1.3292673839       -0.9017183361
 H          4.4672699141       -0.2632674707        0.9135987018
 H          4.9004367244        1.1803736546        0.0045056775
 H          4.4913745748       -0.3082302992       -0.8415705966
