25
 xtb: 6.5.1 (fef0646)
N           -1.73508866961324       -0.06252893711878       -1.33496160738427
C           -0.80736770732414        1.04556366685061       -0.95751096012439
C           -0.52528916436406        1.10534183830763        0.54163385380495
C            0.19588942532845       -0.13771397545172        1.07462097661677
C            1.52024753742943       -0.38194736000993        0.40973406354473
C            2.61781455055718        0.40878302396508        0.71818811054379
C            3.83008820420575        0.20999557317604        0.08755738602897
C            3.95973760188047       -0.78163188581379       -0.86390123804702
C            2.87522955451137       -1.57355944490284       -1.18296751438357
C            1.66382318121250       -1.37303088299728       -0.55143681006780
Cl          -4.77189099187335        0.50820397887145        0.93423884593264
H           -1.45415127645935       -0.97162045618647       -1.04265436862358
H           -2.09587490703630       -0.03988280503597       -2.26227405386391
H           -2.69082802591201        0.08269919942317       -0.71146763748407
H           -1.23890322993042        1.99754141159999       -1.29131781614498
H            0.07378503524638        0.86856773269848       -1.51409522989569
H           -1.45250666204370        1.26886326263686        1.10854160814001
H            0.09503421097603        1.98976423341726        0.74704563807749
H           -0.43990096455272       -1.01989145415352        0.95148739697289
H            0.35765928259168       -0.05259008413950        2.15726522044117
H            2.51376204476006        1.18413095534540        1.45961726221354
H            4.67614492538273        0.83018691436467        0.34055073119633
H            4.90706971579261       -0.93677088509304       -1.35512587186479
H            2.97398217940156       -2.34541205284749       -1.92814683172197
H            0.81671216264365       -1.98645661976025       -0.80641857338714
