 xtb: 6.5.1 (fef0646)
          01242317093D

 25 24  0     0  0            999 V2000
   -1.8677   -0.0316   -1.2405 N   0  0  0  0  0  0  0  0  0  0  0  0
   -0.8637    1.0286   -0.9369 C   0  0  0  0  0  0  0  0  0  0  0  0
   -0.5243    1.1074    0.5486 C   0  0  0  0  0  0  0  0  0  0  0  0
    0.1970   -0.1376    1.0763 C   0  0  0  0  0  0  0  0  0  0  0  0
    1.5203   -0.3811    0.4091 C   0  0  0  0  0  0  0  0  0  0  0  0
    2.6182    0.4084    0.7197 C   0  0  0  0  0  0  0  0  0  0  0  0
    3.8310    0.2096    0.0904 C   0  0  0  0  0  0  0  0  0  0  0  0
    3.9610   -0.7813   -0.8618 C   0  0  0  0  0  0  0  0  0  0  0  0
    2.8760   -1.5713   -1.1835 C   0  0  0  0  0  0  0  0  0  0  0  0
    1.6638   -1.3708   -0.5534 C   0  0  0  0  0  0  0  0  0  0  0  0
   -4.6346    0.4914    0.8395 Cl  0  0  0  0  0  0  0  0  0  0  0  0
   -1.5006   -0.9676   -1.0194 H   0  0  0  0  0  0  0  0  0  0  0  0
   -2.1450   -0.0317   -2.2329 H   0  0  0  0  0  0  0  0  0  0  0  0
   -2.7217    0.1045   -0.6717 H   0  0  0  0  0  0  0  0  0  0  0  0
   -1.2455    1.9960   -1.2871 H   0  0  0  0  0  0  0  0  0  0  0  0
    0.0489    0.8478   -1.5166 H   0  0  0  0  0  0  0  0  0  0  0  0
   -1.4463    1.2752    1.1183 H   0  0  0  0  0  0  0  0  0  0  0  0
    0.1006    1.9886    0.7397 H   0  0  0  0  0  0  0  0  0  0  0  0
   -0.4398   -1.0195    0.9512 H   0  0  0  0  0  0  0  0  0  0  0  0
    0.3590   -0.0536    2.1578 H   0  0  0  0  0  0  0  0  0  0  0  0
    2.5138    1.1838    1.4603 H   0  0  0  0  0  0  0  0  0  0  0  0
    4.6764    0.8299    0.3419 H   0  0  0  0  0  0  0  0  0  0  0  0
    4.9076   -0.9367   -1.3542 H   0  0  0  0  0  0  0  0  0  0  0  0
    2.9743   -2.3443   -1.9288 H   0  0  0  0  0  0  0  0  0  0  0  0
    0.8163   -1.9846   -0.8082 H   0  0  0  0  0  0  0  0  0  0  0  0
  1  2  1  0  0  0  0
  2  3  1  0  0  0  0
  3  4  1  0  0  0  0
  4  5  1  0  0  0  0
  5  6  4  0  0  0  0
  6  7  4  0  0  0  0
  7  8  4  0  0  0  0
  8  9  4  0  0  0  0
  5 10  4  0  0  0  0
  9 10  4  0  0  0  0
  1 12  1  0  0  0  0
  1 13  1  0  0  0  0
  1 14  1  0  0  0  0
  2 15  1  0  0  0  0
  2 16  1  0  0  0  0
  3 17  1  0  0  0  0
  3 18  1  0  0  0  0
  4 19  1  0  0  0  0
  4 20  1  0  0  0  0
  6 21  1  0  0  0  0
  7 22  1  0  0  0  0
  8 23  1  0  0  0  0
  9 24  1  0  0  0  0
 10 25  1  0  0  0  0
M  END
