  16

 N          1.1949069931       -0.0030521581       -0.3955459283
 C          2.6589994272        0.1684831304       -0.3941119078
 C          3.4415674472       -0.9361336764        0.3241451657
 C          4.2369207589        0.1455521872        1.0728963029
 C          3.1957960628        1.1826338031        0.6218308728
 Cl         0.1197123778       -0.6391104792        2.3995928418
 H          0.9161275492       -0.7974165337       -0.9766012712
 H          0.7212527663        0.8448479399       -0.7163560264
 H          0.8551741520       -0.2034493919        0.5815675261
 H          3.0064277088        0.3526121030       -1.4109033908
 H          4.0114563459       -1.6222193957       -0.2954477981
 H          2.7977183302       -1.4966117439        0.9978243445
 H          5.2208266320        0.3196487226        0.6454915862
 H          4.3331642271        0.0058732039        2.1459080637
 H          3.5783469556        2.1201342890        0.2289909764
 H          2.4654822660        1.3807179997        1.4026186425
