  16

 N          1.1694000000       -0.1189200000       -0.2244200000
 C          2.6108800000       -0.1463700000       -0.1897600000
 C          3.1959700000       -1.1855800000        0.7903000000
 C          4.2542700000       -0.1257700000        1.1645800000
 C          3.2444000000        0.9443000000        0.7032600000
 Cl        -0.7112300000        0.8185100000        1.6815500000
 H          0.6935600000       -0.9576700000       -0.5535500000
 H          0.7552900000        0.6893400000       -0.7033400000
 H          0.7211800000        0.0452000000        0.7241500000
 H          3.0495700000       -0.1998100000       -1.1930700000
 H          3.5892000000       -2.0981500000        0.3339300000
 H          2.5376500000       -1.4614500000        1.6230200000
 H          5.1614200000       -0.1690500000        0.5512400000
 H          4.5371300000       -0.0892200000        2.2198500000
 H          3.6749800000        1.7984700000        0.1721000000
 H          2.6113700000        1.3172500000        1.5151200000
