25
0.704
N           -2.87467   1.73598   0.62743
C           -1.71232   2.52942   0.13208
C           -0.37209   1.86729   0.43665
C           -0.15555   0.55952  -0.32555
C            1.17897  -0.06623  -0.04130
C            2.30117   0.30023  -0.77049
C            3.53539  -0.25103  -0.48855
C            3.66383  -1.17258   0.53123
C            2.55686  -1.53911   1.26990
C            1.32330  -0.98663   0.98693
Cl          -3.04519  -1.43508  -0.94489
H           -2.79870   1.56817   1.63986
H           -2.92131   0.81417   0.16653
H           -3.77265   2.21534   0.45302
H           -1.74637   3.53186   0.57729
H           -1.80829   2.68627  -0.94869
H           -0.29318   1.67667   1.51300
H            0.45157   2.55454   0.20635
H           -0.25299   0.73531  -1.40262
H           -0.94625  -0.15587  -0.07723
H            2.19986   1.02495  -1.56119
H            4.39953   0.04013  -1.06411
H            4.62742  -1.60321   0.75203
H            2.65547  -2.25569   2.06954
H            0.45942  -1.26578   1.56679
