25
 xtb: 6.5.1 (fef0646)
N           -2.86839172475233        1.79057631322061        0.67713146298780
C           -1.69558255015332        2.56123833823126        0.17241920552247
C           -0.36550038677541        1.87003076244477        0.45875822671927
C           -0.15226553118090        0.58653688521835       -0.34702199480838
C            1.17433738485312       -0.05552709062460       -0.05772247026458
C            2.29869456608190        0.27296074525739       -0.80251956352116
C            3.52677381945394       -0.28662504211992       -0.50858887194739
C            3.64737258979657       -1.17722857078020        0.53995285648257
C            2.53802163689602       -1.50660495567392        1.29363171763633
C            1.31069514920172       -0.94709631518179        0.99774738492747
Cl          -3.02932592052671       -1.52851474281688       -0.99629569535925
H           -2.79687775647162        1.58240322980873        1.65324032302471
H           -2.92078356736369        0.83159376184256        0.18021776179386
H           -3.76963081379604        2.23284050693909        0.46665567544346
H           -1.73492462814274        3.54001752808253        0.59168443566229
H           -1.80567859414758        2.69879895747416       -0.93634933289164
H           -0.29334972806218        1.66655374394352        1.51759293831300
H            0.45598625611001        2.55525645042067        0.22106299596961
H           -0.24628069173495        0.75395817990736       -1.40745356500494
H           -0.94796215575323       -0.14922549714894       -0.09420323212903
H            2.20126269256282        1.01038121564163       -1.57681669482335
H            4.39746414546275        0.02134237094127       -1.07354643960611
H            4.62128722790864       -1.60603040701444        0.75763147933666
H            2.64806979179788       -2.23946360487500        2.08275803123470
H            0.45532242682071       -1.24614245177943        1.57322908799497
