36
0.0
N           -4.42320   0.29159   1.64436
C           -4.79821   1.37472   0.69515
C           -4.12320   1.20004  -0.66326
C           -2.62868   1.10643  -0.55969
C           -1.84620   2.25103  -0.50828
C           -0.47657   2.16267  -0.37318
C            0.15918   0.92433  -0.27940
C            1.61078   0.87049  -0.13478
C            2.35082  -0.24756  -0.13899
C            3.80220  -0.30185   0.00940
C            4.56788   0.82188   0.32774
C            5.93807   0.72947   0.46235
C            6.57391  -0.48355   0.28414
C            5.83447  -1.60761  -0.02820
C            4.46452  -1.51884  -0.16318
C           -0.63526  -0.22187  -0.31845
C           -2.00487  -0.12883  -0.45378
Cl          -4.48075  -2.70950  -0.13740
H           -4.96191   0.33073   2.52572
H           -3.42148   0.34668   1.88569
H           -4.57527  -0.63942   1.21257
H           -4.52170   2.34464   1.12612
H           -5.88900   1.40203   0.57710
H           -4.38958   2.02370  -1.33695
H           -4.50226   0.29249  -1.14764
H           -2.32293   3.21541  -0.57219
H            0.11877   3.06043  -0.33841
H            2.10917   1.81804  -0.03075
H            1.85599  -1.19303  -0.27477
H            4.08555   1.77212   0.48011
H            6.51486   1.60718   0.70929
H            7.64544  -0.55331   0.39005
H            6.32913  -2.55620  -0.16665
H            3.88990  -2.39742  -0.40768
H           -0.17916  -1.19303  -0.23051
H           -2.60966  -1.02163  -0.46391
