 xtb: 6.5.1 (fef0646)
          01242315163D

 19 18  0     0  0            999 V2000
    1.8117    0.3867   -1.0078 N   0  0  0  0  0  0  0  0  0  0  0  0
    2.6905    0.0614    0.1372 C   0  0  0  0  0  0  0  0  0  0  0  0
    3.1347   -1.3775    0.1186 C   0  0  0  0  0  0  0  0  0  0  0  0
    4.4673   -1.6996    0.3416 C   0  0  0  0  0  0  0  0  0  0  0  0
    4.8790   -3.0211    0.3496 C   0  0  0  0  0  0  0  0  0  0  0  0
    3.9618   -4.0336    0.1250 C   0  0  0  0  0  0  0  0  0  0  0  0
    2.6317   -3.7184   -0.1005 C   0  0  0  0  0  0  0  0  0  0  0  0
    2.2162   -2.3982   -0.0999 C   0  0  0  0  0  0  0  0  0  0  0  0
   -1.0404   -0.6917   -0.7122 Cl  0  0  0  0  0  0  0  0  0  0  0  0
    1.6491    1.3947   -1.0641 H   0  0  0  0  0  0  0  0  0  0  0  0
    0.8650   -0.0571   -0.9033 H   0  0  0  0  0  0  0  0  0  0  0  0
    2.2167    0.0519   -1.8856 H   0  0  0  0  0  0  0  0  0  0  0  0
    2.1340    0.2523    1.0572 H   0  0  0  0  0  0  0  0  0  0  0  0
    3.5680    0.7088    0.1130 H   0  0  0  0  0  0  0  0  0  0  0  0
    5.1888   -0.9161    0.5174 H   0  0  0  0  0  0  0  0  0  0  0  0
    5.9159   -3.2626    0.5285 H   0  0  0  0  0  0  0  0  0  0  0  0
    4.2800   -5.0655    0.1279 H   0  0  0  0  0  0  0  0  0  0  0  0
    1.9113   -4.5049   -0.2732 H   0  0  0  0  0  0  0  0  0  0  0  0
    1.1738   -2.1673   -0.2618 H   0  0  0  0  0  0  0  0  0  0  0  0
  1  2  1  0  0  0  0
  2  3  1  0  0  0  0
  3  4  4  0  0  0  0
  4  5  4  0  0  0  0
  5  6  4  0  0  0  0
  6  7  4  0  0  0  0
  3  8  4  0  0  0  0
  7  8  4  0  0  0  0
  1 10  1  0  0  0  0
  1 11  1  0  0  0  0
  1 12  1  0  0  0  0
  2 13  1  0  0  0  0
  2 14  1  0  0  0  0
  4 15  1  0  0  0  0
  5 16  1  0  0  0  0
  6 17  1  0  0  0  0
  7 18  1  0  0  0  0
  8 19  1  0  0  0  0
M  END
