18
0.0
N           -0.34900  -1.27862   1.07102
C            0.23961  -2.06724  -0.03881
C            0.78129  -1.18368  -1.16015
C            2.01632  -0.36401  -0.77014
C            1.69943   0.80715   0.11710
O            1.32906   1.94996  -0.50293
O            1.75163   0.69759   1.32400
Cl          -3.04246   0.52650  -0.12859
H           -1.18461  -0.75515   0.75445
H            0.34917  -0.57557   1.37228
H           -0.61036  -1.85503   1.88571
H           -0.51751  -2.76115  -0.42541
H            1.04780  -2.69832   0.35025
H           -0.00664  -0.49992  -1.49629
H            1.01811  -1.80896  -2.03124
H            2.51469   0.02449  -1.66468
H            2.74870  -1.00059  -0.26521
H            1.16082   2.61197   0.19575
