15
0.03
N            0.55423  -1.29353  -0.64008
C            1.52676  -0.95005   0.43321
C            1.65618   0.55605   0.64394
C            2.24950   1.27485  -0.55677
Cl          -2.47997   0.23598   0.11618
H            0.86406  -0.93698  -1.55771
H           -0.37318  -0.87064  -0.44292
H            0.41969  -2.31371  -0.73401
H            2.50776  -1.37637   0.19021
H            1.21826  -1.43730   1.36719
H            2.26775   0.75582   1.53518
H            0.66712   0.97212   0.87688
H            1.61787   1.16764  -1.44109
H            3.23252   0.87226  -0.81174
H            2.37166   2.34602  -0.37470
