43
 xtb: 6.5.1 (fef0646)
N            4.39550734313735       -0.31681941575515        1.15771183598198
C            5.20508630666189        0.50195534631637        0.21745521573292
C            4.48187251527147        0.76931782918335       -1.09845186103470
O            3.28109868342101        1.52577566263861       -0.92636282543644
C            2.10825497008965        0.82268708551191       -0.71579525041098
C            1.96990754744298       -0.55967415708168       -0.74286660393217
C            0.76155827955712       -1.17485115663550       -0.49380736081784
C           -0.39354302835376       -0.45325187686458       -0.21017010006529
C           -0.31110749158782        0.96770170975925       -0.19132557155947
C           -1.45934104814781        1.76838795224373        0.07766314104971
C           -1.31641266115784        3.14813437502430        0.09032206323570
C           -0.09215030443620        3.75532468878133       -0.15237331492923
C            1.01451952657379        2.99636325675705       -0.41446828355844
C            0.93400223461022        1.59927786163455       -0.44172132363641
C           -1.66699445328608       -1.10518763419161        0.06517697879726
C           -1.80161409623887       -2.48648102665728        0.08456099689720
C           -3.02263264140810       -3.09828408519601        0.34416467928034
C           -4.13574658949433       -2.34710221488891        0.58866073631883
C           -4.06253953666358       -0.93944540328830        0.58822770395901
C           -5.20180643741355       -0.14979046853991        0.84329592428726
C           -5.11504166649580        1.21191567489737        0.83683840035665
C           -3.89997086955153        1.84049765601689        0.58566088771405
C           -2.74390092655252        1.11788968346308        0.33340159166299
C           -2.81934547755196       -0.30559359188065        0.32739245294565
Cl           3.74672607920918       -3.31334251739783       -0.29795915556663
H            4.87150007932447       -0.36993534873891        2.09848098232250
H            4.19145970829035       -1.19280997857851        0.81248574058238
H            3.49579585744736        0.21722996079194        1.35929827324409
H            6.16649995363346        0.03080795033253        0.05375820081579
H            5.45197239788731        1.50506726841327        0.67100244424625
H            4.27394177658595       -0.17297989496873       -1.61725429928391
H            5.11411955938796        1.34447484485153       -1.77817606373525
H            2.82801778287171       -1.18701860698815       -0.91386586922032
H            0.72409425779983       -2.25401908674777       -0.49448114301711
H           -2.16490078115958        3.77434862429143        0.27913760107477
H           -0.01376921483697        4.82718146179745       -0.16001424020228
H            1.96701841892710        3.45424901877886       -0.62161155252448
H           -0.96206285592227       -3.11252217535115       -0.13949572357369
H           -3.10685633197491       -4.17190597588734        0.30944959596609
H           -5.09039001259725       -2.81754075883857        0.77294537336024
H           -6.14178213245082       -0.62941576009746        1.05519483398501
H           -5.98295389557486        1.81145961167971        1.07220777776062
H           -3.85949596503732        2.91651883553757        0.62807395484031
