 xtb: 6.5.1 (fef0646)
          01242317143D

 43 46  0     0  0            999 V2000
    4.3951   -0.2277    1.2014 N   0  0  0  0  0  0  0  0  0  0  0  0
    5.2086    0.5465    0.2300 C   0  0  0  0  0  0  0  0  0  0  0  0
    4.4831    0.7617   -1.0927 C   0  0  0  0  0  0  0  0  0  0  0  0
    3.2789    1.5148   -0.9378 O   0  0  0  0  0  0  0  0  0  0  0  0
    2.1083    0.8123   -0.7131 C   0  0  0  0  0  0  0  0  0  0  0  0
    1.9729   -0.5708   -0.7186 C   0  0  0  0  0  0  0  0  0  0  0  0
    0.7616   -1.1822   -0.4735 C   0  0  0  0  0  0  0  0  0  0  0  0
   -0.3961   -0.4576   -0.2085 C   0  0  0  0  0  0  0  0  0  0  0  0
   -0.3120    0.9633   -0.1938 C   0  0  0  0  0  0  0  0  0  0  0  0
   -1.4583    1.7667    0.0758 C   0  0  0  0  0  0  0  0  0  0  0  0
   -1.3152    3.1464    0.0748 C   0  0  0  0  0  0  0  0  0  0  0  0
   -0.0917    3.7508   -0.1779 C   0  0  0  0  0  0  0  0  0  0  0  0
    1.0144    2.9892   -0.4344 C   0  0  0  0  0  0  0  0  0  0  0  0
    0.9335    1.5918   -0.4492 C   0  0  0  0  0  0  0  0  0  0  0  0
   -1.6740   -1.1061    0.0542 C   0  0  0  0  0  0  0  0  0  0  0  0
   -1.8169   -2.4864    0.0497 C   0  0  0  0  0  0  0  0  0  0  0  0
   -3.0404   -3.0953    0.3044 C   0  0  0  0  0  0  0  0  0  0  0  0
   -4.1473   -2.3422    0.5695 C   0  0  0  0  0  0  0  0  0  0  0  0
   -4.0668   -0.9352    0.5883 C   0  0  0  0  0  0  0  0  0  0  0  0
   -5.2001   -0.1436    0.8624 C   0  0  0  0  0  0  0  0  0  0  0  0
   -5.1056    1.2174    0.8778 C   0  0  0  0  0  0  0  0  0  0  0  0
   -3.8901    1.8434    0.6223 C   0  0  0  0  0  0  0  0  0  0  0  0
   -2.7411    1.1188    0.3458 C   0  0  0  0  0  0  0  0  0  0  0  0
   -2.8221   -0.3042    0.3279 C   0  0  0  0  0  0  0  0  0  0  0  0
    3.7658   -3.3805   -0.3257 Cl  0  0  0  0  0  0  0  0  0  0  0  0
    4.8664   -0.3290    2.1148 H   0  0  0  0  0  0  0  0  0  0  0  0
    4.1998   -1.1734    0.8388 H   0  0  0  0  0  0  0  0  0  0  0  0
    3.4915    0.2383    1.3571 H   0  0  0  0  0  0  0  0  0  0  0  0
    6.1679    0.0423    0.0641 H   0  0  0  0  0  0  0  0  0  0  0  0
    5.4517    1.5229    0.6641 H   0  0  0  0  0  0  0  0  0  0  0  0
    4.2753   -0.1805   -1.6060 H   0  0  0  0  0  0  0  0  0  0  0  0
    5.1127    1.3368   -1.7828 H   0  0  0  0  0  0  0  0  0  0  0  0
    2.8293   -1.1917   -0.9013 H   0  0  0  0  0  0  0  0  0  0  0  0
    0.7243   -2.2562   -0.4844 H   0  0  0  0  0  0  0  0  0  0  0  0
   -2.1644    3.7745    0.2732 H   0  0  0  0  0  0  0  0  0  0  0  0
   -0.0136    4.8259   -0.1707 H   0  0  0  0  0  0  0  0  0  0  0  0
    1.9669    3.4517   -0.6289 H   0  0  0  0  0  0  0  0  0  0  0  0
   -0.9680   -3.1129   -0.1549 H   0  0  0  0  0  0  0  0  0  0  0  0
   -3.1140   -4.1708    0.2923 H   0  0  0  0  0  0  0  0  0  0  0  0
   -5.0941   -2.8155    0.7673 H   0  0  0  0  0  0  0  0  0  0  0  0
   -6.1416   -0.6270    1.0605 H   0  0  0  0  0  0  0  0  0  0  0  0
   -5.9786    1.8134    1.0897 H   0  0  0  0  0  0  0  0  0  0  0  0
   -3.8547    2.9172    0.6440 H   0  0  0  0  0  0  0  0  0  0  0  0
  1  2  1  0  0  0  0
  2  3  1  0  0  0  0
  3  4  1  0  0  0  0
  4  5  1  0  0  0  0
  5  6  4  0  0  0  0
  6  7  4  0  0  0  0
  7  8  4  0  0  0  0
  8  9  4  0  0  0  0
  9 10  4  0  0  0  0
 10 11  4  0  0  0  0
 11 12  4  0  0  0  0
 12 13  2  0  0  0  0
  5 14  4  0  0  0  0
  9 14  4  0  0  0  0
 13 14  4  0  0  0  0
  8 15  1  0  0  0  0
 15 16  4  0  0  0  0
 16 17  4  0  0  0  0
 17 18  2  0  0  0  0
 18 19  4  0  0  0  0
 19 20  4  0  0  0  0
 20 21  2  0  0  0  0
 21 22  4  0  0  0  0
 10 23  1  0  0  0  0
 22 23  4  0  0  0  0
 15 24  4  0  0  0  0
 19 24  4  0  0  0  0
 23 24  4  0  0  0  0
  1 26  1  0  0  0  0
  1 27  1  0  0  0  0
  1 28  1  0  0  0  0
  2 29  1  0  0  0  0
  2 30  1  0  0  0  0
  3 31  1  0  0  0  0
  3 32  1  0  0  0  0
  6 33  1  0  0  0  0
  7 34  1  0  0  0  0
 11 35  1  0  0  0  0
 12 36  1  0  0  0  0
 13 37  1  0  0  0  0
 16 38  1  0  0  0  0
 17 39  1  0  0  0  0
 18 40  1  0  0  0  0
 20 41  1  0  0  0  0
 21 42  1  0  0  0  0
 22 43  1  0  0  0  0
M  END
