 xtb: 6.5.1 (fef0646)
          01242314553D

 23 22  0     0  0            999 V2000
    1.2682   -0.5197   -0.2113 N   0  0  0  0  0  0  0  0  0  0  0  0
    2.7044   -0.1929   -0.0567 C   0  0  0  0  0  0  0  0  0  0  0  0
    3.1160    0.9410   -0.9561 C   0  0  0  0  0  0  0  0  0  0  0  0
    2.4169    2.1439   -0.9366 C   0  0  0  0  0  0  0  0  0  0  0  0
    2.7964    3.1887   -1.7547 C   0  0  0  0  0  0  0  0  0  0  0  0
    3.8896    3.0680   -2.6149 C   0  0  0  0  0  0  0  0  0  0  0  0
    4.3316    4.1452   -3.4930 C   0  0  0  0  0  0  0  0  0  0  0  0
    3.9320    5.4108   -3.4521 C   0  0  0  0  0  0  0  0  0  0  0  0
    4.5810    1.8560   -2.6300 C   0  0  0  0  0  0  0  0  0  0  0  0
    4.2009    0.8091   -1.8128 C   0  0  0  0  0  0  0  0  0  0  0  0
   -0.6226    1.4922    1.1167 Cl  0  0  0  0  0  0  0  0  0  0  0  0
    1.0336   -1.3755    0.2977 H   0  0  0  0  0  0  0  0  0  0  0  0
    1.0237   -0.6284   -1.1987 H   0  0  0  0  0  0  0  0  0  0  0  0
    0.6572    0.2358    0.1885 H   0  0  0  0  0  0  0  0  0  0  0  0
    3.3009   -1.0757   -0.2898 H   0  0  0  0  0  0  0  0  0  0  0  0
    2.8768    0.0907    0.9833 H   0  0  0  0  0  0  0  0  0  0  0  0
    1.5691    2.2648   -0.2787 H   0  0  0  0  0  0  0  0  0  0  0  0
    2.2303    4.1069   -1.7288 H   0  0  0  0  0  0  0  0  0  0  0  0
    5.0712    3.8527   -4.2286 H   0  0  0  0  0  0  0  0  0  0  0  0
    3.2152    5.7713   -2.7339 H   0  0  0  0  0  0  0  0  0  0  0  0
    4.3176    6.1435   -4.1397 H   0  0  0  0  0  0  0  0  0  0  0  0
    5.4277    1.7403   -3.2908 H   0  0  0  0  0  0  0  0  0  0  0  0
    4.7567   -0.1158   -1.8419 H   0  0  0  0  0  0  0  0  0  0  0  0
  1  2  1  0  0  0  0
  2  3  1  0  0  0  0
  3  4  4  0  0  0  0
  4  5  4  0  0  0  0
  5  6  4  0  0  0  0
  6  7  1  0  0  0  0
  7  8  2  0  0  0  0
  6  9  4  0  0  0  0
  3 10  4  0  0  0  0
  9 10  4  0  0  0  0
  1 12  1  0  0  0  0
  1 13  1  0  0  0  0
  1 14  1  0  0  0  0
  2 15  1  0  0  0  0
  2 16  1  0  0  0  0
  4 17  1  0  0  0  0
  5 18  1  0  0  0  0
  7 19  1  0  0  0  0
  8 20  1  0  0  0  0
  8 21  1  0  0  0  0
  9 22  1  0  0  0  0
 10 23  1  0  0  0  0
M  END
