28
 xtb: 6.5.1 (fef0646)
N           -2.40011708721825       -0.31070535643978        0.40212212498654
C           -1.82185163608920        0.76662334566354       -0.44490040608674
C           -0.29144955951674        0.69387672474285       -0.49741427738132
C            0.20931557299667       -0.62593085957642       -1.12713170895570
C            1.74212140306593       -0.63823496126589       -1.23248576873288
C            2.40400694795795       -0.41322905100693        0.14083358077153
C            3.90622210496015       -0.35886418903448       -0.00462361808084
O            4.62366155077851       -1.30213593745483        0.64874606068686
O            4.40681281598266        0.50975088138523       -0.68750768623097
C            1.88393447699148        0.87916256796673        0.80049427983893
C            0.35063200715829        0.88434557652132        0.89610159076277
Cl          -6.17631639871812        0.05968999633618        0.38400157224131
H           -2.13781457836622       -0.23703192735601        1.37078043741340
H           -2.22876439877718       -1.23307471716528        0.04074987360345
H           -3.49177719372457       -0.21461827551902        0.40468001746618
H           -2.14926353727331        1.75290735751158       -0.06645132552457
H           -2.24679928197651        0.70654605437450       -1.46412277838400
H            0.05889427528208        1.50822945011523       -1.12983562898437
H           -0.27958025118810       -0.79222096571256       -2.09879160511659
H           -0.12965511870786       -1.47007192597849       -0.49545571156107
H            2.05867553866393        0.15235416069949       -1.90829204922750
H            2.08744952356792       -1.57546531437843       -1.67357842368903
H            2.15254014159020       -1.26654831869420        0.79533843392571
H            5.55094406313141       -1.12700088676937        0.45331513668613
H            2.20622802913231        1.73054159371284        0.20653880621014
H            2.32887140680529        1.00849381172793        1.78915518157589
H           -0.03743953675516        1.79826223996530        1.37074519828702
H            0.01334494008332        0.06155350752508        1.55619589496125
