  26

 N         -1.4307094192       -0.0766132318        0.8149718036
 C         -1.1884475742       -1.0730750353       -0.2646966670
 C         -0.1574495970       -0.5802725859       -1.2772814528
 C          1.1680289960       -0.2524170209       -0.6519669995
 C          1.9170388152       -1.2273020711       -0.1411730779
 C          3.2351485410       -1.0103223712        0.5337088510
 C          3.4291664935        0.4459393252        0.9855371637
 C          3.0345824370        1.4171317162       -0.1337609514
 C          1.5783589667        1.1975834174       -0.5813064030
 Cl        -4.5311643223        0.4818268983       -0.3076545376
 H         -2.1449382798       -0.3970045543        1.4923432852
 H         -1.7532232166        0.8232370436        0.4199750735
 H         -0.5637173312        0.1119232797        1.3411510956
 H         -2.1347218354       -1.3088746413       -0.7672186490
 H         -0.8498918815       -2.0158070085        0.1821375910
 H         -0.5446448330        0.3120511625       -1.7834999932
 H         -0.0061536573       -1.3247962563       -2.0695036750
 H          1.5484397294       -2.2389700197       -0.2082210720
 H          4.0401002390       -1.2854217583       -0.1598552922
 H          3.3351211118       -1.6930807225        1.3889651168
 H          4.4648892934        0.6221192575        1.3087097996
 H          2.8082844076        0.6392785474        1.8698280937
 H          3.7051588024        1.2709565383       -0.9904666561
 H          3.1905155440        2.4576765568        0.1844337236
 H          1.4109442914        1.6598192827       -1.5628845854
 H          0.9002015658        1.7191670575        0.1050798714
          26
        -32.70899079
 N         -1.3130606778        1.3859559816        1.2940999064
 C         -0.7601088576        2.2662522183        0.2275191069
 C         -0.2067647632        1.4647703106       -0.9484906332
 C          0.8343791992        0.4647468945       -0.5350568329
 C          0.4726147405       -0.7824788191       -0.2405345503
 C          1.4158365700       -1.8492502746        0.2204576401
 C          2.7475502010       -1.2785174901        0.7348090895
 C          3.2779634649       -0.1940390327       -0.2112151276
 C          2.2559232661        0.9429557184       -0.3869756682
 Cl        -3.2786494639       -1.0733830755       -0.2073116397
 H         -0.5656357891        0.8193508009        1.7290266665
 H         -2.0014967044        0.7210150574        0.8986267997
 H         -1.7788540760        1.9200311311        2.0458088436
 H          0.0298128198        2.8962792419        0.6528421170
 H         -1.5374801129        2.9600410519       -0.1179146771
 H          0.2161022427        2.1363830896       -1.7063372589
 H         -1.0265468821        0.9388313470       -1.4530653059
 H         -0.5726456236       -1.0375555144       -0.3244146058
 H          1.6126634696       -2.5348895199       -0.6136975145
 H          0.9364225073       -2.4601403253        0.9980234516
 H          3.4908529602       -2.0773019593        0.8674610919
 H          2.5984041813       -0.8476293213        1.7332553704
 H          3.4954278993       -0.6426482845       -1.1891645701
 H          4.2388701698        0.1989430203        0.1500991311
 H          2.5168792534        1.5580824721       -1.2579359638
 H          2.3074074884        1.6198031992        0.4747050766
          26
        -32.70919212
 N         -1.3515976289        1.4407908109        1.2360820401
 C         -0.7855768948        2.2733965559        0.1384182131
 C         -0.2135502923        1.4225724445       -0.9933617652
 C          0.8324877874        0.4520985167       -0.5258753566
 C          0.4760556251       -0.7707242959       -0.1381042150
 C          1.4247843320       -1.8046969332        0.3842063727
 C          2.8966964884       -1.4640997213        0.0978665696
 C          3.1793528159        0.0194718962        0.3658978239
 C          2.2633055850        0.9215097992       -0.4790999735
 Cl        -3.2745438071       -1.1055421084       -0.1709370146
 H         -0.6086870623        0.8994558631        1.7092633132
 H         -2.0306357723        0.7544092282        0.8615430048
 H         -1.8319048146        2.0066607446        1.9546652368
 H         -0.0038450798        2.9248029690        0.5462300498
 H         -1.5601580255        2.9480651897       -0.2487159227
 H          0.2124299026        2.0620022955       -1.7770066563
 H         -1.0235555532        0.8666390482       -1.4812107241
 H         -0.5691151949       -1.0330924429       -0.1981719196
 H          1.1713806752       -2.7870834118       -0.0375543766
 H          1.2804312210       -1.9039311747        1.4680917191
 H          3.1270531389       -1.6931925915       -0.9502389836
 H          3.5679341146       -2.1008314809        0.6916169601
 H          4.2371128681        0.2529351906        0.1774990603
 H          3.0182328136        0.2320100927        1.4305764288
 H          2.6458013718        0.9773882958       -1.5056984608
 H          2.2879040393        1.9517101567       -0.1008766103
          26
        -32.70935769
 N         -1.3483764380        1.4351687531        1.2390085843
 C         -0.7858274323        2.2672153832        0.1391118405
 C         -0.2184881726        1.4153798511       -0.9941664131
 C          0.8318820386        0.4480122960       -0.5300711126
 C          0.4810032529       -0.7766299528       -0.1427864189
 C          1.4341929637       -1.8067475532        0.3797729228
 C          2.9057158998       -1.4563384994        0.1024777406
 C          3.1762963253        0.0294097960        0.3704386402
 C          2.2609862100        0.9224166647       -0.4845372847
 Cl        -3.2807046436       -1.1004707825       -0.1689189474
 H         -0.6040261861        0.8938712428        1.7099399565
 H         -2.0289219647        0.7492922557        0.8662665057
 H         -1.8268354475        2.0013055441        1.9586014337
 H         -0.0021812313        2.9182949245        0.5438534558
 H         -1.5613197341        2.9423392884       -0.2454897716
 H          0.2019686811        2.0539149247       -1.7814950859
 H         -1.0300664371        0.8570222580       -1.4766581477
 H         -0.5631727028       -1.0432210515       -0.2015848180
 H          1.1890248294       -2.7889066355       -0.0472858928
 H          1.2851856569       -1.9114623751        1.4624841388
 H          3.1440972665       -1.6845994018       -0.9441054606
 H          3.5777176339       -2.0878448523        0.7010133177
 H          4.2339554713        0.2701713886        0.1915545673
 H          3.0032823210        0.2428436366        1.4329318681
 H          2.6458938386        0.9698633952       -1.5106432142
 H          2.2822673270        1.9559652959       -0.1153405010
          26
        -32.70944225
 N         -1.3191535908        1.4207785725        1.1729990429
 C         -0.8123374194        2.2169085659        0.0214059556
 C         -0.2118876237        1.3278869431       -1.0650828441
 C          0.8932295468        0.4487459024       -0.5554588911
 C          2.0565072590        0.9870639518       -0.1961579844
 C          3.2123172426        0.2118208441        0.3564619606
 C          3.0864431394       -1.3009736380        0.1120060546
 C          1.6611284996       -1.7858302116        0.4045701642
 C          0.6298290655       -1.0321257294       -0.4527207210
 Cl        -3.4155143987       -1.0541009554       -0.0545146344
 H         -0.5485581849        0.9096635358        1.6353802863
 H         -2.0037762005        0.7121305419        0.8536791422
 H         -1.7790982348        2.0085384008        1.8872771272
 H         -0.0595366178        2.9293864265        0.3782857005
 H         -1.6252846643        2.8281495832       -0.3914993862
 H          0.1652630625        1.9347047955       -1.8980595991
 H         -0.9988939505        0.6969437490       -1.4960082425
 H          2.1763573531        2.0533565245       -0.3090469279
 H          3.2816831491        0.3991626180        1.4357962456
 H          4.1518691423        0.5905418402       -0.0693131700
 H          3.8180039142       -1.8570261558        0.7151472808
 H          3.3380241178       -1.5239902017       -0.9328376882
 H          1.4361992703       -1.6283974803        1.4673876501
 H          1.5805738442       -2.8706121623        0.2461473020
 H         -0.3813906590       -1.1878981341       -0.0550468847
 H          0.6133593142       -1.4536736889       -1.4654016978
