  26

 N          1.0872752199        1.6036897355       -0.3378111597
 C          2.5618053165        1.6871671221       -0.3636285028
 C          3.1167622603        1.3593251133        1.0213865987
 C          4.6192974238        1.2816350040        1.0248001100
 C          5.3662975552        2.1625461650        1.6765145629
 C          6.8624432958        2.1286982458        1.7378543551
 C          7.4542530145        1.1596278319        0.7178526403
 C          6.6556973609       -0.1391140999        0.7185375520
 C          5.2286301186        0.1414887174        0.2557302526
 Cl         0.3486180393       -1.2599488942        0.4573775953
 H          0.6805347962        1.8115384591       -1.2525174552
 H          0.6995302641        2.2366377758        0.3663280362
 H          0.8014833475        0.6266695510       -0.0714971701
 H          2.8721073471        2.6884775691       -0.6644023743
 H          2.9322836690        0.9602948043       -1.0846630078
 H          2.7046640933        0.3947024502        1.3292062343
 H          2.7948959157        2.1154964584        1.7380157355
 H          4.9002421884        2.9607104726        2.2389440963
 H          7.1606234873        1.8289844140        2.7487555421
 H          7.2577532744        3.1346619686        1.5754138785
 H          8.5017333402        0.9637351969        0.9537135846
 H          7.4104373759        1.6039253486       -0.2781827541
 H          6.6379327457       -0.5531616693        1.7291202778
 H          7.1232189089       -0.8752345073        0.0617202889
 H          4.6090372543       -0.7507449533        0.3767661802
 H          5.2441823874        0.3866617203       -0.8105550972
