 xtb: 6.5.1 (fef0646)
          01242317093D

 18 16  0     0  0            999 V2000
   -2.1966   -1.3514   -0.8617 N   0  0  0  0  0  0  0  0  0  0  0  0
   -1.0260   -0.5079   -1.2394 C   0  0  0  0  0  0  0  0  0  0  0  0
   -0.6072    0.4311   -0.1149 C   0  0  0  0  0  0  0  0  0  0  0  0
    0.5356    1.3750   -0.4967 C   0  0  0  0  0  0  0  0  0  0  0  0
    1.8336    0.6491   -0.8077 C   0  0  0  0  0  0  0  0  0  0  0  0
    2.4614   -0.4469    0.6511 Br  0  0  0  0  0  0  0  0  0  0  0  0
   -4.7753    0.8667    0.0216 Cl  0  0  0  0  0  0  0  0  0  0  0  0
   -1.9773   -1.9390   -0.0435 H   0  0  0  0  0  0  0  0  0  0  0  0
   -2.4919   -1.9706   -1.6283 H   0  0  0  0  0  0  0  0  0  0  0  0
   -2.9994   -0.7567   -0.6074 H   0  0  0  0  0  0  0  0  0  0  0  0
   -1.2660    0.0757   -2.1359 H   0  0  0  0  0  0  0  0  0  0  0  0
   -0.1872   -1.1522   -1.5252 H   0  0  0  0  0  0  0  0  0  0  0  0
   -0.3155   -0.1614    0.7591 H   0  0  0  0  0  0  0  0  0  0  0  0
   -1.4808    1.0091    0.2101 H   0  0  0  0  0  0  0  0  0  0  0  0
    0.7152    2.0842    0.3218 H   0  0  0  0  0  0  0  0  0  0  0  0
    0.2321    1.9885   -1.3551 H   0  0  0  0  0  0  0  0  0  0  0  0
    2.6386    1.3481   -1.0465 H   0  0  0  0  0  0  0  0  0  0  0  0
    1.7223   -0.0102   -1.6700 H   0  0  0  0  0  0  0  0  0  0  0  0
  1  2  1  0  0  0  0
  2  3  1  0  0  0  0
  3  4  1  0  0  0  0
  4  5  1  0  0  0  0
  5  6  1  0  0  0  0
  1  8  1  0  0  0  0
  1  9  1  0  0  0  0
  1 10  1  0  0  0  0
  2 11  1  0  0  0  0
  2 12  1  0  0  0  0
  3 13  1  0  0  0  0
  3 14  1  0  0  0  0
  4 15  1  0  0  0  0
  4 16  1  0  0  0  0
  5 17  1  0  0  0  0
  5 18  1  0  0  0  0
M  END
