14
 xtb: 6.5.1 (fef0646)
N            0.01465369094574       -0.29668088349898        0.63706525963806
C            0.85981129534699        0.85298969594356        0.21772365048959
C            2.30987042645732        0.62689613582104        0.63952146285352
C            2.88870033883000       -0.54649150970904        0.06595436209246
C            3.36508202179771       -1.54792940416852       -0.43114205932122
Cl          -3.55335567568583        0.31532594279395       -0.53087508984828
H            0.27044181655873       -1.16343212635973        0.19663906131369
H           -1.03777591646536       -0.13075555231162        0.29212358505829
H           -0.07105746254149       -0.39042936521789        1.62797220604149
H            0.43793467396538        1.79183136517054        0.61763846495764
H            0.78689614833032        0.97435925292375       -0.88963509762218
H            2.29903670135197        0.52388845167648        1.73432441675420
H            2.88631656124652        1.49104128636759        0.40295802240006
H            3.77691576705027       -2.41784386334883       -0.86656897584283
