  20

 N         -3.1122381554        0.2094504631       -0.0004315258
 C         -1.8205620591       -0.5434640973        0.0001327626
 C         -0.6014095780        0.3729955550        0.0004088530
 C          0.7317196141       -0.3830659483        0.0003202938
 C          1.9561648444        0.5379381464        0.0000535492
 C          3.2793070283       -0.2164465270       -0.0004501291
 H         -3.9242977997       -0.4254408277       -0.0006741319
 H         -3.1903202669        0.8135225542       -0.8312068426
 H         -3.1909444288        0.8136983591        0.8301540216
 H         -1.7884030187       -1.2056642116       -0.8729830563
 H         -1.7889884995       -1.2054512974        0.8734319651
 H         -0.6476539745        1.0374397658        0.8698061474
 H         -0.6475511056        1.0377435890       -0.8687599094
 H          0.7751771270       -1.0476888789       -0.8692202351
 H          0.7754054090       -1.0475590740        0.8699496752
 H          1.9080624629        1.2037549121        0.8701267303
 H          1.9075313811        1.2039304353       -0.8698555507
 H          3.3714162665       -0.8569790444        0.8775824289
 H          4.1355059928        0.4606524836       -0.0007289551
 H          3.3707904060       -0.8568906995       -0.8786143783
          20
        -20.33204536
 N         -2.5026247489       -0.8347052790       -0.2146410643
 C         -1.9882186841        0.4412663947        0.3686021429
 C         -0.6246966880        0.8545879834       -0.1822017800
 C          0.5182135375       -0.0802550030        0.2242611149
 C          1.8893971104        0.3797828512       -0.2832241110
 C          3.0269062165       -0.5481415043        0.1230545225
 H         -2.5677038975       -0.7727729202       -1.2408148759
 H         -3.4442274687       -1.0604597257        0.1397098572
 H         -1.8927055610       -1.6328733844        0.0124661906
 H         -1.9349630993        0.3443264534        1.4594418198
 H         -2.7250502189        1.2326948186        0.1789664113
 H         -0.3855815936        1.8729573913        0.1468501185
 H         -0.6784246120        0.9109970810       -1.2747031126
 H          0.3176142485       -1.0923663652       -0.1418467132
 H          0.5457279056       -0.1695547976        1.3157989366
 H          2.0888250898        1.3940829189        0.0836794813
 H          1.8580435078        0.4742739014       -1.3755532772
 H          3.9922589248       -0.1963944161       -0.2466007472
 H          2.8761438722       -1.5552518643       -0.2677525592
 H          3.1041837344       -0.6296490512        1.2081309799
