21
 xtb: 6.5.1 (fef0646)
N           -0.56308686596822       -1.73308487879256       -0.93216230816922
C            0.51706008307519       -1.95279584729788        0.07423080621085
C            0.96716773435945       -0.64868753570707        0.72879214855578
C            1.65406096365590        0.31117601438251       -0.24197022512311
C            2.08513218637746        1.62059502068474        0.41981393342996
C            2.76550311329626        2.57443508367271       -0.54971799033644
Cl          -2.91462755654061       -0.03009083818730        0.27047832581641
H           -0.82060831304306       -2.69366682976876       -1.34507187132421
H           -0.10652175206076       -1.25430193643717       -1.77950592445265
H           -1.29323430887984       -1.26358392630254       -0.60508809935828
H            1.44103842124787       -2.46662100261011       -0.35354487573918
H            0.17901246615560       -2.66367380795454        0.83863447264135
H            1.63331234169984       -0.84119402512404        1.57769954893685
H            0.08300529700096       -0.16811353794147        1.14911930777192
H            0.99049383694947        0.52977402146370       -1.08746755633747
H            2.53028136425996       -0.18085489631279       -0.69342459534250
H            2.75250545095056        1.39591456210493        1.26280602077297
H            1.20754367386061        2.09877715706473        0.87199142870580
H            2.10228538578838        2.83447487214366       -1.37760172419062
H            3.66091984210846        2.12500122723425       -0.98350097190614
H            3.06651160170154        3.50575708807119       -0.06393731252648
