36
 xtb: 6.5.1 (fef0646)
N           -5.01695829372705        0.14231955796848        1.59757764810210
C           -5.05465014742509        1.52256608665168        1.03873162747947
C           -4.35609706958306        1.60460599191378       -0.31691983178733
C           -2.93975168255179        1.11315647404620       -0.26728105900005
C           -1.90238520536565        1.96633004494279        0.07890324696502
C           -0.60571159386944        1.50341578743310        0.16609053221364
C           -0.30589590958673        0.16407889057783       -0.08330385825898
C            1.05328806528714       -0.35966118991633        0.00562296474193
C            2.16604204056041        0.39274100060129       -0.01415107501225
C            3.52991465517797       -0.11622566435199        0.07341040890097
C            4.59943203814715        0.76174516114557       -0.10278231592972
C            5.90905504422258        0.32910390851597       -0.02956202734459
F            6.92945067775351        1.20677812594674       -0.20765747890430
C            6.16704343824260       -1.00589487324139        0.22774689234081
C            5.12585512213204       -1.89375941614027        0.40691362393853
C            3.81965522307396       -1.45726212947307        0.33210750729626
C           -1.35619066792849       -0.69163026881851       -0.41339261451127
C           -2.64881853140495       -0.22268197884583       -0.50517940998623
Cl          -5.68266899016317       -2.05506680932393       -0.89683808133072
H           -5.57233419039746        0.07439217405353        2.49274906138071
H           -4.03132747666840       -0.10637534181394        1.87281117483016
H           -5.34311993335521       -0.53656349696909        0.94902145540895
H           -4.56809536261450        2.23248845688154        1.74381110428182
H           -6.09118364239861        1.86162520869363        0.96811841071259
H           -4.38481511427326        2.61549601299989       -0.70763720742454
H           -4.92323744938891        0.98776130634513       -1.03101779853909
H           -2.13302391782099        2.99637812892385        0.29242633772564
H            0.17451837275961        2.18830320791501        0.43882155022618
H            1.15908040146749       -1.41840049857284       -0.03802648510376
H            2.06600612534077        1.47559695134804       -0.03369309526733
H            4.42016212276457        1.80436097305656       -0.29473960121054
H            7.18434808562933       -1.34579302360592        0.27185145601370
H            5.32325243643433       -2.93415407753938        0.61752367221946
H            3.00810457133793       -2.14595052780334        0.51486210729293
H           -1.13697843395553       -1.72419661173235       -0.63422068108587
H           -3.45018170959985       -0.90241911412941       -0.76024310774224
