41
 xtb: 6.5.1 (fef0646)
N            5.07431543923806       -1.88619742761092       -0.78186633663014
C            5.37674126355243       -0.45046055711926       -1.04960992729620
C            4.71416719943307        0.48752299333828       -0.04340772234777
C            3.19430145236685        0.53784209298121       -0.20811527395590
C            2.51131775708307        1.51535959612713        0.74916732562291
C            0.99717245245461        1.61911678614886        0.54288757303009
C            0.24153669460466        0.33073455936417        0.87231851246756
C           -1.27507443182008        0.47420623516529        0.73551246573950
C           -2.02795130478098       -0.81412809120516        1.07089730228280
C           -3.55153046450927       -0.66848342397206        1.02176989989097
C           -4.09973141517427       -0.39500677685583       -0.37936097615740
C           -5.62655973399127       -0.30749502361430       -0.41716855392581
C           -6.16938316193782       -0.04218072510523       -1.81344665435565
H            5.47471687260694       -2.49398093092501       -1.52646179985859
H            4.04030814126444       -2.03031003229725       -0.78656022527235
H            5.43832262642364       -2.19861323233169        0.12545774905534
H            5.10965753745185       -0.17817691885597       -2.05407590758788
H            6.48444324649094       -0.32210598759374       -0.98605941391267
H            5.11381829372618        1.50372742041626       -0.14895568813753
H            4.95081579600559        0.18655445643939        0.97872342309512
H            2.77386045840904       -0.46394874782360       -0.08096748956442
H            2.94948370936736        0.81120863518725       -1.25193260409578
H            2.96828423756259        2.50437543801455        0.62491440349807
H            2.72205324627369        1.21931358331962        1.77349970477469
H            0.78150555491981        1.90920724438102       -0.49511132606432
H            0.59264885292491        2.43172708252747        1.15494826582208
H            0.49136801063960        0.01042957892413        1.88865242623298
H            0.58589289516694       -0.48355766523645        0.22252323182987
H           -1.52083766552627        0.79692208154243       -0.27944255187328
H           -1.62656341632527        1.27946617472341        1.38933324231058
H           -1.71770236479282       -1.16097073162997        2.06446675091017
H           -1.71368935928765       -1.61046652629890        0.38242893065640
H           -3.86283867213890        0.12876655897890        1.70289916971909
H           -4.02371156996371       -1.58072555760760        1.41515609478665
H           -3.76118788543845       -1.17435977856756       -1.06573904552668
H           -3.67634415211964        0.53773473128338       -0.76652856703379
H           -5.96208329497721        0.47479154568873        0.28005161794716
H           -6.05231224824249       -1.23787199173075       -0.01803283170233
H           -5.78787787526612        0.90437314991951       -2.20419457661339
H           -7.26106154349754        0.02342874946991       -1.81664823658022
H           -5.87985412723230       -0.82294437314530       -2.50365816189907
