 xtb: 6.5.1 (fef0646)
          02032321003D

 41 40  0     0  0            999 V2000
    5.0662   -1.8865   -0.7947 N   0  0  0  0  0  0  0  0  0  0  0  0
    5.4036   -0.4505   -1.0245 C   0  0  0  0  0  0  0  0  0  0  0  0
    4.7079    0.4910   -0.0459 C   0  0  0  0  0  0  0  0  0  0  0  0
    3.1903    0.5387   -0.2231 C   0  0  0  0  0  0  0  0  0  0  0  0
    2.5086    1.5152    0.7367 C   0  0  0  0  0  0  0  0  0  0  0  0
    0.9938    1.6179    0.5380 C   0  0  0  0  0  0  0  0  0  0  0  0
    0.2412    0.3285    0.8700 C   0  0  0  0  0  0  0  0  0  0  0  0
   -1.2758    0.4711    0.7379 C   0  0  0  0  0  0  0  0  0  0  0  0
   -2.0273   -0.8188    1.0700 C   0  0  0  0  0  0  0  0  0  0  0  0
   -3.5510   -0.6736    1.0239 C   0  0  0  0  0  0  0  0  0  0  0  0
   -4.1010   -0.3927   -0.3751 C   0  0  0  0  0  0  0  0  0  0  0  0
   -5.6279   -0.3067   -0.4108 C   0  0  0  0  0  0  0  0  0  0  0  0
   -6.1726   -0.0335   -1.8049 C   0  0  0  0  0  0  0  0  0  0  0  0
    5.5809   -2.5017   -1.4357 H   0  0  0  0  0  0  0  0  0  0  0  0
    4.0644   -2.0599   -0.9355 H   0  0  0  0  0  0  0  0  0  0  0  0
    5.2992   -2.1645    0.1655 H   0  0  0  0  0  0  0  0  0  0  0  0
    5.1407   -0.1741   -2.0517 H   0  0  0  0  0  0  0  0  0  0  0  0
    6.4912   -0.3270   -0.9553 H   0  0  0  0  0  0  0  0  0  0  0  0
    5.1120    1.5049   -0.1497 H   0  0  0  0  0  0  0  0  0  0  0  0
    4.9452    0.1901    0.9798 H   0  0  0  0  0  0  0  0  0  0  0  0
    2.7736   -0.4637   -0.0864 H   0  0  0  0  0  0  0  0  0  0  0  0
    2.9499    0.8125   -1.2563 H   0  0  0  0  0  0  0  0  0  0  0  0
    2.9670    2.5046    0.6215 H   0  0  0  0  0  0  0  0  0  0  0  0
    2.7224    1.2188    1.7696 H   0  0  0  0  0  0  0  0  0  0  0  0
    0.7790    1.9090   -0.4962 H   0  0  0  0  0  0  0  0  0  0  0  0
    0.5923    2.4311    1.1543 H   0  0  0  0  0  0  0  0  0  0  0  0
    0.4923    0.0098    1.8877 H   0  0  0  0  0  0  0  0  0  0  0  0
    0.5856   -0.4840    0.2215 H   0  0  0  0  0  0  0  0  0  0  0  0
   -1.5218    0.7971   -0.2782 H   0  0  0  0  0  0  0  0  0  0  0  0
   -1.6264    1.2778    1.3912 H   0  0  0  0  0  0  0  0  0  0  0  0
   -1.7169   -1.1634    2.0636 H   0  0  0  0  0  0  0  0  0  0  0  0
   -1.7138   -1.6110    0.3811 H   0  0  0  0  0  0  0  0  0  0  0  0
   -3.8625    0.1262    1.7049 H   0  0  0  0  0  0  0  0  0  0  0  0
   -4.0233   -1.5829    1.4145 H   0  0  0  0  0  0  0  0  0  0  0  0
   -3.7615   -1.1724   -1.0659 H   0  0  0  0  0  0  0  0  0  0  0  0
   -3.6771    0.5392   -0.7638 H   0  0  0  0  0  0  0  0  0  0  0  0
   -5.9625    0.4738    0.2833 H   0  0  0  0  0  0  0  0  0  0  0  0
   -6.0524   -1.2384   -0.0176 H   0  0  0  0  0  0  0  0  0  0  0  0
   -5.7893    0.9078   -2.2001 H   0  0  0  0  0  0  0  0  0  0  0  0
   -7.2620    0.0255   -1.8137 H   0  0  0  0  0  0  0  0  0  0  0  0
   -5.8807   -0.8190   -2.5027 H   0  0  0  0  0  0  0  0  0  0  0  0
  1  2  1  0  0  0  0
  2  3  1  0  0  0  0
  3  4  1  0  0  0  0
  4  5  1  0  0  0  0
  5  6  1  0  0  0  0
  6  7  1  0  0  0  0
  7  8  1  0  0  0  0
  8  9  1  0  0  0  0
  9 10  1  0  0  0  0
 10 11  1  0  0  0  0
 11 12  1  0  0  0  0
 12 13  1  0  0  0  0
  1 14  1  0  0  0  0
  1 15  1  0  0  0  0
  1 16  1  0  0  0  0
  2 17  1  0  0  0  0
  2 18  1  0  0  0  0
  3 19  1  0  0  0  0
  3 20  1  0  0  0  0
  4 21  1  0  0  0  0
  4 22  1  0  0  0  0
  5 23  1  0  0  0  0
  5 24  1  0  0  0  0
  6 25  1  0  0  0  0
  6 26  1  0  0  0  0
  7 27  1  0  0  0  0
  7 28  1  0  0  0  0
  8 29  1  0  0  0  0
  8 30  1  0  0  0  0
  9 31  1  0  0  0  0
  9 32  1  0  0  0  0
 10 33  1  0  0  0  0
 10 34  1  0  0  0  0
 11 35  1  0  0  0  0
 11 36  1  0  0  0  0
 12 37  1  0  0  0  0
 12 38  1  0  0  0  0
 13 39  1  0  0  0  0
 13 40  1  0  0  0  0
 13 41  1  0  0  0  0
M  CHG  1   1   1
M  END
