29
 xtb: 6.5.1 (fef0646)
N            3.18757252541906       -0.16789848605189        0.51556986220950
C            2.81165657605147       -0.18469604218912       -0.92568483151786
C            1.53035167151253        0.59185700770979       -1.20823968832547
O            0.40842559536308        0.03083053045566       -0.53177365110246
C           -0.79589556985454        0.70530786602147       -0.72543720996659
C           -0.96052001535764        1.82605529858945       -1.52207441935020
C           -2.20163935313647        2.44370203052092       -1.66385128275450
C           -3.30273898936159        1.96434902723673       -1.01441155991910
C           -3.20306401119969        0.82735947928347       -0.18520268162422
C           -4.31788939325318        0.30283446274034        0.50680629396603
C           -4.18841014211486       -0.79835328216741        1.30050876264912
C           -2.94648368591810       -1.42730613679837        1.43993841773989
C           -1.85198185591873       -0.94363141891414        0.78347046136271
C           -1.94763877524851        0.19154512051353       -0.04038501151698
Cl           5.77962579853648       -1.90043999836817        1.21643267114319
H            3.96561244272371       -0.67086105626082        0.75062113377210
H            2.33009982641799       -0.47616183689521        1.06194339350666
H            3.28118515781098        0.85799902774459        0.81704193432015
H            2.67899023899964       -1.21034715161504       -1.24393438812904
H            3.63288997110217        0.23328961979521       -1.52194185264510
H            1.28814395015165        0.56920063966973       -2.31518563675947
H            1.61730873221712        1.64136012602825       -0.94048155369888
H           -0.13208375999658        2.23702903344195       -2.05974675221537
H           -2.30803220770641        3.31723579138184       -2.29483560220678
H           -4.26841877175152        2.45011773448636       -1.11907201264126
H           -5.27810080667850        0.78468378469496        0.40588609630900
H           -5.04427969199952       -1.19421523106590        1.82638971210170
H           -2.85319527890975       -2.30063047868371        2.06387996108431
H           -0.89506846352924       -1.42289269405026        0.87638363797344
