  18

 N         -3.2320734296        1.1074709556        0.0161847213
 C         -2.0403111241        0.2107957595        0.0201547440
 C         -0.7284289092        0.9847916888       -0.0083101998
 C          0.5026630793        0.0746818165        0.0077930288
 C          1.8117372302        0.8413686054       -0.0294035269
 Br         3.3682569964       -0.3024471194       -0.0030618440
 Cl        -6.1239944265       -0.9189702438        0.0028154265
 H         -4.1145272791        0.5665745942        0.0228470128
 H         -3.2376705001        1.7069651496       -0.8189901611
 H         -3.2330282512        1.7218729048        0.8405308434
 H         -2.0868911356       -0.4695973209       -0.8381798766
 H         -2.0687538606       -0.4368957958        0.9041622141
 H         -0.6893363105        1.6736254604        0.8428072346
 H         -0.7002767642        1.6278838331       -0.8949530999
 H          0.4630622525       -0.6197634507       -0.8401434178
 H          0.4804818096       -0.5653530781        0.8981445967
 H          1.8935870926        1.5173789452        0.8237335238
 H          1.8789979692        1.4571990577       -0.9282334480
          18
        -25.76485747
 N         -3.3800618277       -1.8245825205        0.1366942634
 C         -1.9817211683       -1.8041106069       -0.3811924195
 C         -1.1011899249       -0.8165830821        0.3744389763
 C          0.3355510112       -0.7703675615       -0.1518932058
 C          1.2117519603        0.2212188375        0.5910054502
 Br         3.0232190451        0.2897554859       -0.0766756613
 Cl        -4.5553285649        1.4770385930       -0.0748458639
 H         -3.9822902394       -2.4708180852       -0.3960407780
 H         -3.7953631815       -0.8828016180        0.0783570081
 H         -3.4023093779       -2.1092524186        1.1242015856
 H         -1.9865082519       -1.5517114838       -1.4480681655
 H         -1.5488374966       -2.8095053544       -0.3217120803
 H         -1.0959821262       -1.0698451881        1.4403969786
 H         -1.5451974251        0.1838866245        0.3223758672
 H          0.3316266218       -0.5227936925       -1.2203246080
 H          0.7851084140       -1.7690333759       -0.0940864288
 H          1.2680493292       -0.0252836098        1.6530759380
 H          0.8040979992        1.2316285162        0.5212208015
          18
        -25.76674357
 N         -2.4376152848       -1.5879559484        0.9557685988
 C         -1.7384669186       -2.3395441368       -0.1260897994
 C         -0.3430260662       -1.7948260164       -0.4198005510
 C         -0.3533149104       -0.3843269980       -1.0066031595
 C          1.0436002713        0.1404132317       -1.2905810162
 Br         2.1179069037        0.3231645652        0.3027119291
 Cl        -3.0368920877        1.7700436343        0.0105357406
 H         -2.6036426107       -0.6050661515        0.6813292184
 H         -1.8742293011       -1.5757300414        1.8157995938
 H         -3.3511937965       -2.0035199677        1.1826418873
 H         -2.3437525311       -2.3148221377       -1.0396287185
 H         -1.6764846991       -3.3980765433        0.1556191180
 H          0.1880538741       -2.4652680777       -1.1066145250
 H          0.2507465540       -1.7988780552        0.5008173277
 H         -0.8541022166        0.2984556445       -0.3107888096
 H         -0.9612732786       -0.3710247565       -1.9207059872
 H          1.0170043232        1.1239938378       -1.7652382182
 H          1.5832587743       -0.5282298827       -1.9638564417
          18
        -25.76784922
 N         -2.3656538009       -1.9040612054       -0.4758841796
 C         -0.8919765009       -2.1250456650       -0.5192144838
 C         -0.1984723691       -1.7644247921        0.7913158422
 C         -0.3425490827       -0.2939564593        1.1877120098
 C          0.2581209697        0.6628823257        0.1721759814
 Br         2.1333184223        0.3483528727       -0.1557362620
 Cl        -3.1790334109        1.5170508967       -0.0715771069
 H         -2.5903380927       -0.9039427102       -0.3389426078
 H         -2.7908869088       -2.4240407787        0.3028390655
 H         -2.8249508109       -2.2066354892       -1.3456274600
 H         -0.4593532881       -1.5470512251       -1.3434036297
 H         -0.6941319653       -3.1746705182       -0.7704939814
 H          0.8679536903       -2.0109207190        0.7227528926
 H         -0.5930344594       -2.4032353803        1.5906750843
 H          0.1423895674       -0.1271311205        2.1584933094
 H         -1.4009902687       -0.0551940155        1.3508053634
 H          0.1642091260        1.7025728186        0.4944792719
 H         -0.2464575872        0.5855917191       -0.7922923457
          18
        -25.76794336
 N         -2.3603629738       -1.9029499419       -0.4741502864
 C         -0.8854481885       -2.1142527317       -0.5262548124
 C         -0.1887954708       -1.7664797229        0.7859623873
 C         -0.3356204877       -0.3012568019        1.2002586076
 C          0.2595923104        0.6692190899        0.1943498433
 Br         2.1293702445        0.3498280992       -0.1589918905
 Cl        -3.1825334658        1.5101053207       -0.0742940265
 H         -2.5911283525       -0.9046393008       -0.3345962231
 H         -2.7771867663       -2.4274011064        0.3057515086
 H         -2.8230250478       -2.2070471712       -1.3415490218
 H         -0.4600622972       -1.5232465533       -1.3449727372
 H         -0.6815872550       -3.1593218905       -0.7913338373
 H          0.8781498226       -2.0090242215        0.7111487283
 H         -0.5780417724       -2.4160724806        1.5792218253
 H          0.1516255978       -0.1451197596        2.1717264355
 H         -1.3943750475       -0.0674650099        1.3688239846
 H          0.1747606219        1.7039883138        0.5344004230
 H         -0.2553453607        0.6099607974       -0.7658289750
