19
0.0
N           -1.10965  -2.00339   0.55131
C           -0.01277  -1.89903  -0.45547
C            0.87127  -0.71040  -0.22949
C            2.24310  -0.86224  -0.08218
C            3.05599   0.23550   0.12057
C            2.50707   1.50049   0.17822
C            1.14443   1.66493   0.03334
C            0.33354   0.56609  -0.16941
Cl          -3.16621   0.81583  -0.03452
H           -1.67228  -2.85640   0.42528
H           -1.74733  -1.19294   0.47797
H           -0.72662  -2.00991   1.50575
H           -0.43573  -1.84571  -1.46518
H            0.59130  -2.81303  -0.43663
H            2.67225  -1.84903  -0.12884
H            4.12026   0.10426   0.23314
H            3.14106   2.35813   0.33658
H            0.71241   2.65177   0.08030
H           -0.73097   0.69403  -0.27266
