19
 xtb: 6.5.1 (fef0646)
N           -1.20827753383386       -1.87413561903774        0.51097126710582
C           -0.04464807559699       -1.87165257775263       -0.43422426993718
C            0.86295729708600       -0.69655296356359       -0.22468611755798
C            2.23467007409961       -0.86235173614231       -0.09371418885641
C            3.05976235981004        0.22736524938144        0.10656229345641
C            2.52464515822977        1.49759850952873        0.17793520676278
C            1.16282590896972        1.67610276267551        0.04379177702870
C            0.34114286266378        0.58560753630560       -0.15701992059034
Cl          -3.08810881409908        0.67771132772137       -0.01950993814580
H           -1.69749504526800       -2.82373346264801        0.42435340002229
H           -1.77595800686916       -1.15583751746448        0.43869961772321
H           -0.76939806814008       -1.95440476787264        1.50129307274242
H           -0.42769655720341       -1.84965099663613       -1.46728275866470
H            0.57404132186919       -2.80989333937757       -0.40729171061706
H            2.66704976793045       -1.85010117307141       -0.13499956180212
H            4.12133695140777        0.09875923927995        0.22574043914138
H            3.14899745000587        2.35509634971870        0.33706494508833
H            0.72070438685378        2.65621428698406        0.08611368011144
H           -0.72840697595288        0.70214147404277       -0.26629634546647
