 xtb: 6.5.1 (fef0646)
          02032317573D

 19 18  0     0  0            999 V2000
   -1.1097   -2.0034    0.5513 N   0  0  0  0  0  0  0  0  0  0  0  0
   -0.0128   -1.8990   -0.4555 C   0  0  0  0  0  0  0  0  0  0  0  0
    0.8713   -0.7104   -0.2295 C   0  0  0  0  0  0  0  0  0  0  0  0
    2.2431   -0.8623   -0.0822 C   0  0  0  0  0  0  0  0  0  0  0  0
    3.0560    0.2355    0.1206 C   0  0  0  0  0  0  0  0  0  0  0  0
    2.5071    1.5005    0.1782 C   0  0  0  0  0  0  0  0  0  0  0  0
    1.1444    1.6649    0.0333 C   0  0  0  0  0  0  0  0  0  0  0  0
    0.3335    0.5661   -0.1694 C   0  0  0  0  0  0  0  0  0  0  0  0
   -3.1662    0.8158   -0.0345 Cl  0  0  0  0  0  0  0  0  0  0  0  0
   -1.6723   -2.8564    0.4253 H   0  0  0  0  0  0  0  0  0  0  0  0
   -1.7473   -1.1929    0.4780 H   0  0  0  0  0  0  0  0  0  0  0  0
   -0.7266   -2.0099    1.5058 H   0  0  0  0  0  0  0  0  0  0  0  0
   -0.4357   -1.8457   -1.4652 H   0  0  0  0  0  0  0  0  0  0  0  0
    0.5913   -2.8130   -0.4366 H   0  0  0  0  0  0  0  0  0  0  0  0
    2.6722   -1.8490   -0.1288 H   0  0  0  0  0  0  0  0  0  0  0  0
    4.1203    0.1042    0.2331 H   0  0  0  0  0  0  0  0  0  0  0  0
    3.1411    2.3581    0.3366 H   0  0  0  0  0  0  0  0  0  0  0  0
    0.7124    2.6518    0.0803 H   0  0  0  0  0  0  0  0  0  0  0  0
   -0.7310    0.6940   -0.2727 H   0  0  0  0  0  0  0  0  0  0  0  0
  1  2  1  0  0  0  0
  2  3  1  0  0  0  0
  3  4  4  0  0  0  0
  4  5  4  0  0  0  0
  5  6  4  0  0  0  0
  6  7  4  0  0  0  0
  3  8  4  0  0  0  0
  7  8  4  0  0  0  0
  1 10  1  0  0  0  0
  1 11  1  0  0  0  0
  1 12  1  0  0  0  0
  2 13  1  0  0  0  0
  2 14  1  0  0  0  0
  4 15  1  0  0  0  0
  5 16  1  0  0  0  0
  6 17  1  0  0  0  0
  7 18  1  0  0  0  0
  8 19  1  0  0  0  0
M  END
