22

N          1.09309        0.21061        0.03899
C          2.55353        0.09619        0.05124
C          3.17023        1.45311       -0.28556
C          4.67949        1.43126       -0.28826
C          5.38467        0.60342       -1.17293
C          6.78228        0.59775       -1.17996
C          7.48249        1.42974       -0.31144
Cl         9.20189        1.42694       -0.32410
C          6.79803        2.26949        0.56263
C          5.39922        2.27077        0.57432
Cl        -0.76001       -1.87044       -0.46291
H          0.62952       -0.74620        0.08197
H          0.67793        0.51669       -0.85092
H          0.64822        0.71429        0.81073
H          2.81844       -0.66940       -0.68381
H          2.84459       -0.25063        1.04764
H          2.81028        2.20069        0.43238
H          2.82901        1.79094       -1.27250
H          4.86203       -0.04217       -1.87738
H          7.31643       -0.05194       -1.86846
H          7.34477        2.92677        1.23447
H          4.88557        2.94142        1.26048
