34
2.054
N            3.78536   0.90303  -0.87545
C            3.51792  -0.19065  -1.85185
C            3.24739  -1.53164  -1.17271
C            1.95283  -1.55594  -0.41663
C            0.75330  -1.74785  -1.08769
C           -0.44241  -1.75435  -0.40602
C            1.92269  -1.36203   0.95732
C            0.72859  -1.36474   1.64303
C           -0.47471  -1.55548   0.97030
N           -1.68655  -1.52513   1.66113
N           -2.65851  -0.81368   1.34180
C           -2.62969   0.15813   0.34222
C           -1.58910   1.07782   0.27170
C           -1.55587   2.02835  -0.72373
C           -2.56681   2.08132  -1.66336
C           -3.61128   1.17909  -1.60237
C           -3.64485   0.22607  -0.60819
Cl           1.25633   2.01888   1.34919
H            2.97523   1.06689  -0.25879
H            3.99800   1.79302  -1.34677
H            4.58763   0.66716  -0.27134
H            4.37217  -0.27878  -2.53457
H            2.66302   0.08114  -2.48146
H            4.07023  -1.77039  -0.49087
H            3.23816  -2.34039  -1.91253
H            0.76653  -1.89147  -2.15485
H           -1.37061  -1.89959  -0.93046
H            2.84741  -1.20560   1.48636
H            0.70823  -1.20806   2.70741
H           -0.79845   1.01772   0.99939
H           -0.73779   2.72834  -0.77064
H           -2.54055   2.82518  -2.44288
H           -4.40107   1.22019  -2.33472
H           -4.45294  -0.48256  -0.55536
