34
 xtb: 6.5.1 (fef0646)
N            3.77059294957056        0.91571080110428       -0.86118360244776
C            3.50660001492586       -0.17550243029846       -1.84315102193372
C            3.24486818517422       -1.52250080182520       -1.17190922502385
C            1.95001046221228       -1.56083794988913       -0.41679213152223
C            0.75457272164866       -1.78565626884576       -1.08542551023143
C           -0.44221141659163       -1.79998414384663       -0.40513411826087
C            1.91538701921359       -1.34566697788858        0.95414078410989
C            0.72046103465560       -1.35472047639332        1.63828947187017
C           -0.47913918909822       -1.57447519316814        0.96694232353781
N           -1.69458469559926       -1.54239349912496        1.65275384408406
N           -2.66106263730930       -0.82299481641334        1.33395653631297
C           -2.62302888695382        0.15300435553034        0.33872352584192
C           -1.55366387458753        1.03866638829531        0.24306376552125
C           -1.51707536919067        1.99438662239981       -0.74706888690966
C           -2.55213346307960        2.08549001420028       -1.65857758305398
C           -3.62371661040679        1.21607958735786       -1.57441526546531
C           -3.66172453833392        0.25932136685597       -0.58392187452628
Cl           1.25527277331416        2.06017319899533        1.34563235921766
H            2.97125731496475        1.06963580080029       -0.25468330522741
H            3.99360539582295        1.79700741948063       -1.34201422962747
H            4.58385659205279        0.67037412382250       -0.26784712446761
H            4.36851975430208       -0.27214429235678       -2.53283277685027
H            2.65888036127622        0.08519731918734       -2.47791961163694
H            4.06986719734363       -1.76721756871907       -0.49090028303421
H            3.23921528533692       -2.33643422834412       -1.91373702916975
H            0.76802508339929       -1.90797265886205       -2.15343895549125
H           -1.36986271463888       -1.91942936529645       -0.92963382175759
H            2.84429468538057       -1.19398945644419        1.48510365434963
H            0.70467668303825       -1.19951073212987        2.70518783267502
H           -0.78301187341933        0.99916467852308        0.98483332946228
H           -0.72056894093862        2.71115950767208       -0.78220369662299
H           -2.53576434046357        2.82764311710463       -2.44029121865416
H           -4.41022998106868        1.23977649328607       -2.32012941204896
H           -4.46459412555314       -0.46478183363640       -0.54267336021124
