34
 xtb: 6.5.1 (fef0646)
N            3.94710583362756       -0.38445654859678        0.33534284884390
C            3.49093400219750        1.00742956506829        0.06589361857299
C            2.30639352758638        1.39006341509356        0.94883129442481
C            1.11439945692272        0.51148602000345        0.71279665091252
C            0.82200701895098       -0.54145334028271        1.56932968314658
C           -0.25268589783049       -1.36798483084744        1.32915568989432
C            0.30975085651870        0.70608003033440       -0.40087547035314
C           -0.76455342718289       -0.11851311293431       -0.64581500550071
C           -1.06692614372592       -1.16619925272860        0.21853130957258
N           -2.16948547631302       -1.98726792762880       -0.01539328160107
N           -3.32799723160022       -1.55430999008147       -0.17912582714468
C           -3.68628446884457       -0.21685158652824        0.00064954061189
C           -3.45315430793909        0.42088133873480        1.21677832073797
C           -3.78367231546639        1.74691604980894        1.38721065536695
C           -4.35558083555136        2.45715533177063        0.34851564136496
C           -4.59581053019901        1.83616733366480       -0.86315417472382
C           -4.26501646768476        0.51054958586787       -1.03745033338965
Cl           6.68309916594660       -1.20565322540425       -1.89645263661424
H            4.75412110987475       -0.64337279698748       -0.30220445847543
H            3.21083967947992       -1.06100626814310        0.16096591001809
H            4.28912638622068       -0.49489244020760        1.29233018314504
H            3.21203133896295        1.10327732797314       -0.99107592445243
H            4.32600862992227        1.70756912300739        0.21239951991490
H            2.02614584272561        2.42336745764213        0.79279455307987
H            2.60541215790844        1.30792842377435        2.00227005206876
H            1.44123343410111       -0.71504187265278        2.43053203920584
H           -0.48987330739385       -2.18031839437528        1.99554555069724
H            0.54653809918819        1.50496390788341       -1.08122760789675
H           -1.38329590785323        0.03675473933443       -1.51470895357599
H           -2.94623739408392       -0.11892251738570        1.99704704802839
H           -3.53320476074825        2.25301564295806        2.30818103670298
H           -4.60693674246725        3.49942133182966        0.47978687675555
H           -5.09587577412723        2.37542413896315       -1.65224907367588
H           -4.50331590605489        0.00369836947003       -1.95454685839555
