15
1.485
N            0.21087   0.69743  -0.18806
C            1.23945  -0.37073  -0.31726
C            2.64041   0.18911  -0.54793
C            3.16428   0.98560   0.63609
Cl          -2.97902  -0.68007   0.16321
H            0.39159   1.29790   0.63165
H           -0.74574   0.30540  -0.08041
H            0.20563   1.30823  -1.02002
H            0.95945  -1.04161  -1.14004
H            1.23422  -0.99523   0.58423
H            2.63185   0.81877  -1.44752
H            3.33491  -0.63089  -0.77903
H            4.18278   1.34611   0.46937
H            3.17618   0.38016   1.54526
H            2.54186   1.85963   0.83902
