 xtb: 6.5.1 (fef0646)
          01232314173D

 42 40  0     0  0            999 V2000
    2.7199    1.7972    1.8885 N   0  0  0  0  0  0  0  0  0  0  0  0
    4.1345    1.8969    2.2369 C   0  0  0  0  0  0  0  0  0  0  0  0
    4.4909    1.3202    3.6111 C   0  0  0  0  0  0  0  0  0  0  0  0
    4.1796   -0.1706    3.7674 C   0  0  0  0  0  0  0  0  0  0  0  0
    4.8995   -1.0881    2.7760 C   0  0  0  0  0  0  0  0  0  0  0  0
    6.4260   -1.0051    2.8136 C   0  0  0  0  0  0  0  0  0  0  0  0
    7.0227   -1.3969    4.1636 C   0  0  0  0  0  0  0  0  0  0  0  0
    8.5455   -1.4931    4.1047 C   0  0  0  0  0  0  0  0  0  0  0  0
    9.1459   -1.8888    5.4512 C   0  0  0  0  0  0  0  0  0  0  0  0
   10.6665   -2.0115    5.3921 C   0  0  0  0  0  0  0  0  0  0  0  0
   11.2577   -2.4276    6.7366 C   0  0  0  0  0  0  0  0  0  0  0  0
   12.7778   -2.5585    6.6863 C   0  0  0  0  0  0  0  0  0  0  0  0
   13.3530   -2.9811    8.0326 C   0  0  0  0  0  0  0  0  0  0  0  0
    2.1849    3.0407   -0.7075 Cl  0  0  0  0  0  0  0  0  0  0  0  0
    2.4429    2.4624    0.5091 H   0  0  0  0  0  0  0  0  0  0  0  0
    2.1453    2.2583    2.5867 H   0  0  0  0  0  0  0  0  0  0  0  0
    2.4339    0.8261    1.8255 H   0  0  0  0  0  0  0  0  0  0  0  0
    4.4012    2.9562    2.2128 H   0  0  0  0  0  0  0  0  0  0  0  0
    4.7016    1.3915    1.4541 H   0  0  0  0  0  0  0  0  0  0  0  0
    3.9369    1.8703    4.3776 H   0  0  0  0  0  0  0  0  0  0  0  0
    5.5520    1.4935    3.7910 H   0  0  0  0  0  0  0  0  0  0  0  0
    3.1024   -0.3302    3.6625 H   0  0  0  0  0  0  0  0  0  0  0  0
    4.4415   -0.4682    4.7841 H   0  0  0  0  0  0  0  0  0  0  0  0
    4.5643   -0.8659    1.7604 H   0  0  0  0  0  0  0  0  0  0  0  0
    4.6015   -2.1167    2.9950 H   0  0  0  0  0  0  0  0  0  0  0  0
    6.7525    0.0024    2.5498 H   0  0  0  0  0  0  0  0  0  0  0  0
    6.8184   -1.6810    2.0496 H   0  0  0  0  0  0  0  0  0  0  0  0
    6.6141   -2.3627    4.4711 H   0  0  0  0  0  0  0  0  0  0  0  0
    6.7450   -0.6620    4.9213 H   0  0  0  0  0  0  0  0  0  0  0  0
    8.9575   -0.5302    3.7932 H   0  0  0  0  0  0  0  0  0  0  0  0
    8.8316   -2.2320    3.3524 H   0  0  0  0  0  0  0  0  0  0  0  0
    8.7207   -2.8445    5.7672 H   0  0  0  0  0  0  0  0  0  0  0  0
    8.8733   -1.1433    6.2022 H   0  0  0  0  0  0  0  0  0  0  0  0
   11.0955   -1.0536    5.0883 H   0  0  0  0  0  0  0  0  0  0  0  0
   10.9394   -2.7494    4.6338 H   0  0  0  0  0  0  0  0  0  0  0  0
   10.8250   -3.3844    7.0391 H   0  0  0  0  0  0  0  0  0  0  0  0
   10.9853   -1.6889    7.4945 H   0  0  0  0  0  0  0  0  0  0  0  0
   13.2131   -1.6015    6.3894 H   0  0  0  0  0  0  0  0  0  0  0  0
   13.0514   -3.2952    5.9273 H   0  0  0  0  0  0  0  0  0  0  0  0
   13.1055   -2.2497    8.7992 H   0  0  0  0  0  0  0  0  0  0  0  0
   14.4357   -3.0681    7.9781 H   0  0  0  0  0  0  0  0  0  0  0  0
   12.9460   -3.9435    8.3354 H   0  0  0  0  0  0  0  0  0  0  0  0
  1  2  1  0  0  0  0
  2  3  1  0  0  0  0
  3  4  1  0  0  0  0
  4  5  1  0  0  0  0
  5  6  1  0  0  0  0
  6  7  1  0  0  0  0
  7  8  1  0  0  0  0
  8  9  1  0  0  0  0
  9 10  1  0  0  0  0
 10 11  1  0  0  0  0
 11 12  1  0  0  0  0
 12 13  1  0  0  0  0
 14 15  1  0  0  0  0
  1 16  1  0  0  0  0
  1 17  1  0  0  0  0
  2 18  1  0  0  0  0
  2 19  1  0  0  0  0
  3 20  1  0  0  0  0
  3 21  1  0  0  0  0
  4 22  1  0  0  0  0
  4 23  1  0  0  0  0
  5 24  1  0  0  0  0
  5 25  1  0  0  0  0
  6 26  1  0  0  0  0
  6 27  1  0  0  0  0
  7 28  1  0  0  0  0
  7 29  1  0  0  0  0
  8 30  1  0  0  0  0
  8 31  1  0  0  0  0
  9 32  1  0  0  0  0
  9 33  1  0  0  0  0
 10 34  1  0  0  0  0
 10 35  1  0  0  0  0
 11 36  1  0  0  0  0
 11 37  1  0  0  0  0
 12 38  1  0  0  0  0
 12 39  1  0  0  0  0
 13 40  1  0  0  0  0
 13 41  1  0  0  0  0
 13 42  1  0  0  0  0
M  END
