 xtb: 6.5.1 (fef0646)
          01242317013D

 36 36  0     0  0            999 V2000
   -5.7482    0.3178    0.1997 N   0  0  0  0  0  0  0  0  0  0  0  0
   -4.2734    0.2209    0.0007 C   0  0  0  0  0  0  0  0  0  0  0  0
   -3.4945    1.0807    0.9896 C   0  0  0  0  0  0  0  0  0  0  0  0
   -2.0090    0.9931    0.7919 C   0  0  0  0  0  0  0  0  0  0  0  0
   -1.3556    1.8652   -0.0667 C   0  0  0  0  0  0  0  0  0  0  0  0
    0.0022    1.7624   -0.2772 C   0  0  0  0  0  0  0  0  0  0  0  0
    0.7564    0.7755    0.3589 C   0  0  0  0  0  0  0  0  0  0  0  0
    2.1905    0.6957    0.1094 C   0  0  0  0  0  0  0  0  0  0  0  0
    3.0068   -0.2665    0.5630 C   0  0  0  0  0  0  0  0  0  0  0  0
    4.4403   -0.3475    0.3096 C   0  0  0  0  0  0  0  0  0  0  0  0
    5.1506    0.6737   -0.3252 C   0  0  0  0  0  0  0  0  0  0  0  0
    6.5065    0.5595   -0.5475 C   0  0  0  0  0  0  0  0  0  0  0  0
    7.1847   -0.5729   -0.1414 C   0  0  0  0  0  0  0  0  0  0  0  0
    6.5017   -1.5927    0.4913 C   0  0  0  0  0  0  0  0  0  0  0  0
    5.1463   -1.4819    0.7154 C   0  0  0  0  0  0  0  0  0  0  0  0
    0.0910   -0.1018    1.2164 C   0  0  0  0  0  0  0  0  0  0  0  0
   -1.2674    0.0057    1.4240 C   0  0  0  0  0  0  0  0  0  0  0  0
   -7.4199   -1.7161   -2.1423 Cl  0  0  0  0  0  0  0  0  0  0  0  0
   -6.0121    0.0142    1.1466 H   0  0  0  0  0  0  0  0  0  0  0  0
   -6.2663   -0.2708   -0.4770 H   0  0  0  0  0  0  0  0  0  0  0  0
   -6.0711    1.2879    0.0843 H   0  0  0  0  0  0  0  0  0  0  0  0
   -4.0167    0.5150   -1.0237 H   0  0  0  0  0  0  0  0  0  0  0  0
   -3.9539   -0.8241    0.0903 H   0  0  0  0  0  0  0  0  0  0  0  0
   -3.7447    0.7867    2.0145 H   0  0  0  0  0  0  0  0  0  0  0  0
   -3.8135    2.1251    0.9046 H   0  0  0  0  0  0  0  0  0  0  0  0
   -1.9247    2.6267   -0.5734 H   0  0  0  0  0  0  0  0  0  0  0  0
    0.4952    2.4480   -0.9457 H   0  0  0  0  0  0  0  0  0  0  0  0
    2.6049    1.4746   -0.5052 H   0  0  0  0  0  0  0  0  0  0  0  0
    2.5874   -1.0625    1.1518 H   0  0  0  0  0  0  0  0  0  0  0  0
    4.6383    1.5663   -0.6384 H   0  0  0  0  0  0  0  0  0  0  0  0
    7.0400    1.3573   -1.0390 H   0  0  0  0  0  0  0  0  0  0  0  0
    8.2449   -0.6600   -0.3167 H   0  0  0  0  0  0  0  0  0  0  0  0
    7.0297   -2.4771    0.8100 H   0  0  0  0  0  0  0  0  0  0  0  0
    4.6159   -2.2797    1.2081 H   0  0  0  0  0  0  0  0  0  0  0  0
    0.6426   -0.8710    1.7278 H   0  0  0  0  0  0  0  0  0  0  0  0
   -1.7687   -0.6836    2.0826 H   0  0  0  0  0  0  0  0  0  0  0  0
  1  2  1  0  0  0  0
  2  3  1  0  0  0  0
  3  4  1  0  0  0  0
  4  5  4  0  0  0  0
  5  6  4  0  0  0  0
  6  7  4  0  0  0  0
  7  8  1  0  0  0  0
  8  9  2  0  0  0  0
  9 10  1  0  0  0  0
 10 11  4  0  0  0  0
 11 12  4  0  0  0  0
 12 13  4  0  0  0  0
 13 14  4  0  0  0  0
 10 15  4  0  0  0  0
 14 15  4  0  0  0  0
  7 16  4  0  0  0  0
  4 17  4  0  0  0  0
 16 17  4  0  0  0  0
  1 19  1  0  0  0  0
  1 20  1  0  0  0  0
  1 21  1  0  0  0  0
  2 22  1  0  0  0  0
  2 23  1  0  0  0  0
  3 24  1  0  0  0  0
  3 25  1  0  0  0  0
  5 26  1  0  0  0  0
  6 27  1  0  0  0  0
  8 28  1  0  0  0  0
  9 29  1  0  0  0  0
 11 30  1  0  0  0  0
 12 31  1  0  0  0  0
 13 32  1  0  0  0  0
 14 33  1  0  0  0  0
 15 34  1  0  0  0  0
 16 35  1  0  0  0  0
 17 36  1  0  0  0  0
M  END
