42
 xtb: 6.5.1 (fef0646)
N            5.60792724033777        0.36710818379478       -1.71205495800509
C            5.21653209922149        1.38832308008579       -0.70192529800455
C            4.85850054946554        0.76020640966068        0.63605400341776
O            3.85545948877370       -0.24259933787417        0.54274511825625
C            2.58267207387105        0.18654549636539        0.43779595269042
C            2.15405251363382        1.53275992284510        0.44101689277863
C            0.83638746328683        1.85973472564217        0.32353167940087
C           -0.17713290229698        0.88818109798241        0.19728990155972
C            0.19857005119990       -0.48462813478016        0.20505376573655
C           -0.77379751257794       -1.51599081530422        0.09745428376955
C           -0.34131256704741       -2.84239627536976        0.11739314757116
C            0.99339520763419       -3.16515631207697        0.24071269234406
C            1.93906414285940       -2.17282559897639        0.34633780655872
C            1.56745789393366       -0.83476972690968        0.32743792817805
C           -1.56834856430025        1.24310260050262        0.06837599380605
C           -1.99995869166918        2.57091757161706        0.04553628422347
C           -3.33809495909046        2.89869113332407       -0.07623093368101
C           -4.28830547946131        1.91966024204639       -0.17864968684397
C           -3.91954898898794        0.56225385443959       -0.16324565581883
C           -4.88628983721719       -0.45442695588661       -0.26542114100887
C           -4.51378828083124       -1.76968164979129       -0.24744704332755
C           -3.17969575649568       -2.12112262467004       -0.13010867918931
C           -2.17688555489745       -1.16068012870170       -0.02602708031864
C           -2.54820832317917        0.21200027796734       -0.04051387503077
H            6.36362869662622       -0.22407913324699       -1.31741856359599
H            5.89765581460889        0.77835115137800       -2.59252371040141
H            4.79116041838475       -0.27421680658466       -1.88655307869572
H            4.33675530613060        1.94376386148859       -1.09530091139315
H            6.00663580584124        2.12621774951303       -0.59544405242378
H            4.55655015500556        1.49907140400912        1.39273621061500
H            5.74500764686616        0.25902115171071        1.04300410242695
H            2.87899423365596        2.31913333132513        0.54960586289300
H            0.57138592539549        2.89970996692448        0.33988838161224
H           -1.05494896868204       -3.64087114623232        0.03430187484479
H            1.29735583695975       -4.19970657433227        0.25391950455538
H            2.98360350369451       -2.41686246170719        0.45085077226862
H           -1.28257962223775        3.36928291953156        0.12261162679424
H           -3.63174452506779        3.93605312686567       -0.09072971221252
H           -5.32612171557038        2.18231923570173       -0.27445500583004
H           -5.92299426183961       -0.18314874378588       -0.36109636908026
H           -5.26324648569022       -2.53782234822356       -0.33021643846823
H           -2.92586778126814       -3.16414610074439       -0.12237237085835
