25
 xtb: 6.5.1 (fef0646)
N           -3.27307309195721       -0.77232376035250       -0.35736950827083
C           -2.23799885684248       -1.61717483472111       -1.03095560680238
C           -0.91588568925408       -0.91763245019428       -1.10243182611709
C           -0.44381536445786       -0.38638531797782       -2.31858085431023
C            0.73812053689379        0.28984242920255       -2.37838239213262
C           -0.17684925147255       -0.74055941735185        0.03482005429874
C            1.05248245205207       -0.04481957014071        0.01207336513225
C            1.52026453044014        0.47933069252865       -1.21660406022649
C            2.74958405608923        1.17801651516189       -1.23757400581351
C            3.47228090641881        1.34450440391643       -0.09405839451072
C            3.00803340645861        0.82532406202021        1.12331772416319
C            1.82758235743195        0.14719228732092        1.17897151400049
Cl          -2.21223662114515        0.17406122755638        2.70550309546214
H           -3.01998377044885       -0.48879876496205        0.52270151294228
H           -4.19737920762319       -1.28412159814616       -0.35974272263861
H           -3.43597880254306        0.06183403518924       -0.98704090288055
H           -2.52343208035997       -1.96653538919483       -2.03188193739101
H           -2.10963078934906       -2.56177505115291       -0.44316247815387
H           -1.05756507133646       -0.49511185224071       -3.19158523421457
H            1.05714751293836        0.73186295569068       -3.29849876009918
H           -0.51800143257799       -1.16670317004559        0.97083348775534
H            3.07996849487080        1.61250142475865       -2.16336402409285
H            4.40114246694649        1.89038410080125       -0.12298365370836
H            3.61264688386194        0.93830498721573        2.01102579124613
H            1.50029654835722       -0.29370336011365        2.10830548565636
