  25

 N         -2.6699360777        0.8260499616        0.8664789776
 C         -2.5390421366       -0.4827436129        0.1623044311
 C         -1.5250480874       -0.4448220144       -0.9801746275
 C         -0.1171997896       -0.2025886477       -0.5175778926
 C          0.3894909550        1.0262260025       -0.5289773932
 C          1.7741838496        1.3810915887       -0.0851251541
 C          2.6894660196        0.1562699606        0.0800314012
 C          1.9428078667       -1.0074358154        0.7454949890
 C          0.6836696572       -1.3881782984       -0.0511177650
 H         -3.3473436119        0.7738974646        1.6362241017
 H         -2.9818232653        1.5587279249        0.2185581050
 H         -1.7674546901        1.1175731841        1.2607299290
 H         -3.5236089318       -0.7841108429       -0.2149112662
 H         -2.2491298267       -1.2525550915        0.8859633541
 H         -1.8095048730        0.3323778303       -1.6962416139
 H         -1.5530825513       -1.3835967124       -1.5443811396
 H         -0.2313171403        1.8262907370       -0.8970704393
 H          1.7138929010        1.9187929341        0.8685885613
 H          2.2169577793        2.0889987424       -0.7972408161
 H          3.5863166887        0.4176056121        0.6564656823
 H          3.0529095406       -0.1627377955       -0.9034862667
 H          1.6572312647       -0.7202990584        1.7637374315
 H          2.6052355546       -1.8754030113        0.8581855619
 H          0.0400352505       -2.0424829582        0.5479810723
 H          0.9699989568       -1.9792800005       -0.9284205329
          25
        -27.88020413
 N         -2.6949504351       -0.7845119589        0.8432515492
 C         -2.5440474598        0.5173736195        0.1317182867
 C         -1.5113392611        0.4650218180       -0.9931189811
 C         -0.1146140863        0.2018898803       -0.5079364351
 C          0.3732885645       -1.0346950362       -0.5147255198
 C          1.7471655588       -1.4088712228       -0.0545996320
 C          2.6812756260       -0.1959097928        0.0860129589
 C          1.9579444018        0.9786852111        0.7563583885
 C          0.6971509236        1.3758440797       -0.0299156921
 H         -3.3886153440       -0.7230609566        1.5973854369
 H         -1.8027160310       -1.0763054421        1.2595191673
 H         -2.9969209799       -1.5214761136        0.1943787151
 H         -2.2630568113        1.2910686197        0.8543799240
 H         -3.5202885249        0.8216344049       -0.2647375986
 H         -1.5170618657        1.4045507969       -1.5570156082
 H         -1.7952546138       -0.3068192272       -1.7151613175
 H         -0.2550239259       -1.8244867580       -0.8919151081
 H          2.1809971966       -2.1414318430       -0.7478223642
 H          1.6711442115       -1.9225494237        0.9112719876
 H          3.0289038943        0.1129649083       -0.9066467324
 H          3.5864860825       -0.4635662924        0.6467491364
 H          2.6340503447        1.8364209910        0.8648032268
 H          1.6765651510        0.6949944884        1.7767019457
 H          0.9832276128        1.9764180241       -0.9002150041
 H          0.0604448232        2.0266505200        0.5805727398
