23
0.863
N           -2.89444  -1.78060  -0.52156
C           -2.05431  -2.25310   0.61923
C           -0.62999  -1.84355   0.49448
C           -0.26522  -0.58391   0.27611
C            1.11283  -0.10499   0.15920
C            2.18540  -0.96662  -0.06937
C            3.47137  -0.47978  -0.17792
C            3.71274   0.87508  -0.06339
C            2.66266   1.74443   0.15675
C            1.37620   1.26045   0.26506
Cl          -2.76636   1.77889  -0.37434
H           -3.86834  -2.10592  -0.44688
H           -2.51316  -2.11599  -1.41599
H           -2.91014  -0.74740  -0.56005
H           -2.12797  -3.34482   0.69940
H           -2.46016  -1.86269   1.56053
H            0.13003  -2.59672   0.61593
H           -1.03779   0.16021   0.18183
H            2.00600  -2.02245  -0.17656
H            4.29027  -1.15844  -0.35532
H            4.71870   1.25360  -0.14843
H            2.84894   2.80296   0.24329
H            0.55634   1.93819   0.43419
