23
0.752
N           -2.52212  -0.83492   0.84083
C           -1.69913  -0.04816  -0.12592
C           -0.24636  -0.12193   0.16823
C            0.67740   0.46467  -0.58866
C            2.11884   0.42393  -0.33357
C            2.69800  -0.54667   0.48374
C            4.05921  -0.56289   0.70570
C            4.87007   0.38622   0.11542
C            4.31579   1.35186  -0.70133
C            2.95526   1.37032  -0.92514
Cl          -5.93042  -0.58577   0.03440
H           -3.52981  -0.77753   0.62206
H           -2.38887  -0.49036   1.80104
H           -2.25240  -1.83059   0.82676
H           -2.01939   1.00058  -0.11805
H           -1.88250  -0.40682  -1.14603
H            0.05381  -0.66251   1.04821
H            0.35119   1.02419  -1.44924
H            2.07660  -1.30134   0.93418
H            4.49195  -1.32001   1.33980
H            5.93391   0.37205   0.29007
H            4.94786   2.09242  -1.16471
H            2.52355   2.12505  -1.56086
