23
1.59
N           -2.94419  -1.22231  -0.84426
C           -1.95848  -2.07086  -0.11254
C           -0.70915  -1.33081   0.20254
C            0.26000  -1.15114  -0.69061
C            1.49224  -0.39629  -0.45177
C            1.97893  -0.16429   0.83453
C            3.14378   0.54752   1.03147
C            3.84749   1.03967  -0.04992
C            3.38434   0.81543  -1.33136
C            2.22024   0.10378  -1.53111
Cl          -3.50224   1.59279   1.16853
H           -2.55376  -0.89601  -1.73850
H           -3.17197  -0.38422  -0.28735
H           -3.82446  -1.72449  -1.04235
H           -1.71658  -2.95862  -0.70892
H           -2.41261  -2.45566   0.80936
H           -0.62783  -0.86174   1.16824
H            0.13412  -1.57574  -1.67235
H            1.44551  -0.55908   1.68212
H            3.50736   0.71810   2.03212
H            4.75786   1.59597   0.10573
H            3.93380   1.19731  -2.17690
H            1.85836  -0.06888  -2.53079
