23
1.689
N           -2.94420  -1.58471   0.65400
C           -2.07507  -2.07850  -0.45451
C           -0.85690  -1.24285  -0.61327
C            0.19668  -1.34847   0.19132
C            1.38759  -0.49865   0.11238
C            2.62456  -0.98519   0.53385
C            3.75320  -0.19539   0.47058
C            3.66856   1.09650  -0.01013
C            2.45042   1.59833  -0.42464
C            1.32012   0.81070  -0.36294
Cl          -3.06531   1.85104  -0.09485
H           -3.83410  -2.09875   0.71705
H           -3.15479  -0.58605   0.50759
H           -2.46208  -1.66225   1.56292
H           -2.64465  -2.09678  -1.39211
H           -1.78654  -3.12005  -0.26875
H           -0.85519  -0.48655  -1.38000
H            0.18643  -2.10719   0.95562
H            2.69012  -1.99345   0.90724
H            4.70322  -0.58696   0.79719
H            4.55146   1.71344  -0.05873
H            2.38249   2.60917  -0.79380
H            0.36822   1.21346  -0.66438
