25
 xtb: 6.5.1 (fef0646)
N            3.77231081936201       -2.10863658010291        0.28113008494888
C            4.05839355061261       -0.90079132052410       -0.56752866879499
C            3.64633454297164        0.41011519898006        0.11229933501289
C            2.17302240258198        0.63093248604518        0.09644210344364
C            1.52852383350772        1.84948486999390        0.08202457102025
C            0.13414758734487        1.76159688971122        0.04360925584694
C           -0.35110174939416        0.45715473162990        0.03194536771839
C           -1.70120671802698        0.06545483231034       -0.00649800692495
C           -2.17846853464676       -1.24145025490309        0.00124228068406
C           -3.57083770526183       -1.33127217639320       -0.03307142508632
C           -4.20111762161172       -0.11397002791516       -0.06744454098859
S           -3.06341088887780        1.15858359468101       -0.04979331050082
S            1.00778104744878       -0.63054569389138        0.02746266725300
H            3.95625845954413       -2.96516102261847       -0.32309441695166
H            2.73849888412757       -2.11620610144255        0.43955678177189
H            4.26728952818902       -2.14984330540481        1.10583040850434
H            3.64861988525245       -0.92989847584919       -1.55001397907839
H            5.18466499330237       -0.86430520710049       -0.71343725082576
H            4.13813622557256        1.27664425075826       -0.32166546065847
H            3.97051085933870        0.40426092016185        1.18292712295697
H            2.06053430777733        2.78217744020706        0.06036505698078
H           -0.51360849896590        2.61761505885372       -0.01092840563131
H           -1.53268655829268       -2.10151038695400        0.04843287631971
H           -4.10927989566474       -2.26773360373328       -0.01698181147958
H           -5.26517547769788        0.04415964700308       -0.09631249035895
