 xtb: 6.5.1 (fef0646)
          01242310093D

 25 26  0     0  0            999 V2000
    3.7533   -1.2720    1.0178 N   0  0  0  0  0  0  0  0  0  0  0  0
    4.1175   -0.4084   -0.1427 C   0  0  0  0  0  0  0  0  0  0  0  0
    3.5001    0.9903   -0.0696 C   0  0  0  0  0  0  0  0  0  0  0  0
    2.0225    1.0118   -0.2613 C   0  0  0  0  0  0  0  0  0  0  0  0
    1.2980    2.0209   -0.8620 C   0  0  0  0  0  0  0  0  0  0  0  0
   -0.0832    1.8008   -0.8926 C   0  0  0  0  0  0  0  0  0  0  0  0
   -0.4779    0.5996   -0.3065 C   0  0  0  0  0  0  0  0  0  0  0  0
   -1.7917    0.1052   -0.1767 C   0  0  0  0  0  0  0  0  0  0  0  0
   -2.9670    0.7151   -0.6116 C   0  0  0  0  0  0  0  0  0  0  0  0
   -4.1203   -0.0240   -0.3348 C   0  0  0  0  0  0  0  0  0  0  0  0
   -3.8747   -1.2088    0.3118 C   0  0  0  0  0  0  0  0  0  0  0  0
   -2.1998   -1.4114    0.5793 S   0  0  0  0  0  0  0  0  0  0  0  0
    0.9489   -0.2216    0.2596 S   0  0  0  0  0  0  0  0  0  0  0  0
    4.1662   -2.2144    0.9415 H   0  0  0  0  0  0  0  0  0  0  0  0
    2.7330   -1.3817    1.0863 H   0  0  0  0  0  0  0  0  0  0  0  0
    4.0802   -0.8591    1.9043 H   0  0  0  0  0  0  0  0  0  0  0  0
    3.8036   -0.8973   -1.0729 H   0  0  0  0  0  0  0  0  0  0  0  0
    5.2117   -0.3375   -0.1978 H   0  0  0  0  0  0  0  0  0  0  0  0
    3.9608    1.6435   -0.8202 H   0  0  0  0  0  0  0  0  0  0  0  0
    3.7354    1.4410    0.9008 H   0  0  0  0  0  0  0  0  0  0  0  0
    1.7618    2.9084   -1.2678 H   0  0  0  0  0  0  0  0  0  0  0  0
   -0.7812    2.5009   -1.3262 H   0  0  0  0  0  0  0  0  0  0  0  0
   -2.9852    1.6701   -1.1147 H   0  0  0  0  0  0  0  0  0  0  0  0
   -5.1141    0.3073   -0.6045 H   0  0  0  0  0  0  0  0  0  0  0  0
   -4.6203   -1.9216    0.6153 H   0  0  0  0  0  0  0  0  0  0  0  0
  1  2  1  0  0  0  0
  2  3  1  0  0  0  0
  3  4  1  0  0  0  0
  4  5  2  0  0  0  0
  5  6  4  0  0  0  0
  6  7  4  0  0  0  0
  7  8  1  0  0  0  0
  8  9  4  0  0  0  0
  9 10  4  0  0  0  0
 10 11  2  0  0  0  0
  8 12  1  0  0  0  0
 11 12  1  0  0  0  0
  4 13  1  0  0  0  0
  7 13  1  0  0  0  0
  1 14  1  0  0  0  0
  1 15  1  0  0  0  0
  1 16  1  0  0  0  0
  2 17  1  0  0  0  0
  2 18  1  0  0  0  0
  3 19  1  0  0  0  0
  3 20  1  0  0  0  0
  5 21  1  0  0  0  0
  6 22  1  0  0  0  0
  9 23  1  0  0  0  0
 10 24  1  0  0  0  0
 11 25  1  0  0  0  0
M  CHG  1   1   1
M  END
