 xtb: 6.5.1 (fef0646)
          01242317063D

 25 26  0     0  0            999 V2000
    3.7361   -2.1118    0.1909 N   0  0  0  0  0  0  0  0  0  0  0  0
    4.1157   -0.8696   -0.5451 C   0  0  0  0  0  0  0  0  0  0  0  0
    3.6457    0.4125    0.1483 C   0  0  0  0  0  0  0  0  0  0  0  0
    2.1731    0.6218    0.0923 C   0  0  0  0  0  0  0  0  0  0  0  0
    1.5296    1.8401    0.0478 C   0  0  0  0  0  0  0  0  0  0  0  0
    0.1353    1.7541    0.0113 C   0  0  0  0  0  0  0  0  0  0  0  0
   -0.3520    0.4507    0.0289 C   0  0  0  0  0  0  0  0  0  0  0  0
   -1.7035    0.0630    0.0002 C   0  0  0  0  0  0  0  0  0  0  0  0
   -2.1855   -1.2420    0.0176 C   0  0  0  0  0  0  0  0  0  0  0  0
   -3.5781   -1.3269   -0.0187 C   0  0  0  0  0  0  0  0  0  0  0  0
   -4.2040   -0.1078   -0.0647 C   0  0  0  0  0  0  0  0  0  0  0  0
   -3.0602    1.1616   -0.0638 S   0  0  0  0  0  0  0  0  0  0  0  0
    1.0035   -0.6404    0.0935 S   0  0  0  0  0  0  0  0  0  0  0  0
    4.0377   -2.9567   -0.3081 H   0  0  0  0  0  0  0  0  0  0  0  0
    2.7188   -2.1602    0.3083 H   0  0  0  0  0  0  0  0  0  0  0  0
    4.1577   -2.1242    1.1269 H   0  0  0  0  0  0  0  0  0  0  0  0
    3.6986   -0.9065   -1.5580 H   0  0  0  0  0  0  0  0  0  0  0  0
    5.2054   -0.8552   -0.6703 H   0  0  0  0  0  0  0  0  0  0  0  0
    4.1394    1.2826   -0.2995 H   0  0  0  0  0  0  0  0  0  0  0  0
    3.9597    0.3978    1.1965 H   0  0  0  0  0  0  0  0  0  0  0  0
    2.0612    2.7792    0.0442 H   0  0  0  0  0  0  0  0  0  0  0  0
   -0.5128    2.6155   -0.0261 H   0  0  0  0  0  0  0  0  0  0  0  0
   -1.5357   -2.1023    0.0557 H   0  0  0  0  0  0  0  0  0  0  0  0
   -4.1124   -2.2659   -0.0112 H   0  0  0  0  0  0  0  0  0  0  0  0
   -5.2658    0.0470   -0.0974 H   0  0  0  0  0  0  0  0  0  0  0  0
  1  2  1  0  0  0  0
  2  3  1  0  0  0  0
  3  4  1  0  0  0  0
  4  5  2  0  0  0  0
  5  6  4  0  0  0  0
  6  7  4  0  0  0  0
  7  8  1  0  0  0  0
  8  9  4  0  0  0  0
  9 10  4  0  0  0  0
 10 11  2  0  0  0  0
  8 12  1  0  0  0  0
 11 12  1  0  0  0  0
  4 13  1  0  0  0  0
  7 13  1  0  0  0  0
  1 14  1  0  0  0  0
  1 15  1  0  0  0  0
  1 16  1  0  0  0  0
  2 17  1  0  0  0  0
  2 18  1  0  0  0  0
  3 19  1  0  0  0  0
  3 20  1  0  0  0  0
  5 21  1  0  0  0  0
  6 22  1  0  0  0  0
  9 23  1  0  0  0  0
 10 24  1  0  0  0  0
 11 25  1  0  0  0  0
M  CHG  1   1   1
M  END
