15

N          1.01307        0.04553        0.13145
C          2.47649        0.04693        0.06001
C          3.14061       -1.02328        0.95541
C          4.19269        0.04401        1.32301
C          3.13745        1.11149        0.96490
H          0.60437       -0.70021       -0.44867
H          0.61333        0.93349       -0.20060
H          0.66168       -0.09828        1.08856
H          2.84381        0.05635       -0.97248
H          3.52833       -1.90213        0.43375
H          2.53933       -1.35484        1.81039
H          5.06591        0.04756        0.66099
H          4.53083        0.04110        2.36232
H          3.52301        1.99374        0.44728
H          2.53251        1.43493        1.81924
