 xtb: 6.5.1 (fef0646)
          01242310113D

 18 17  0     0  0            999 V2000
   -1.4175    1.1806    0.2480 N   0  0  0  0  0  0  0  0  0  0  0  0
   -1.6577   -0.1876   -0.2859 C   0  0  0  0  0  0  0  0  0  0  0  0
   -0.7077   -1.2389    0.2941 C   0  0  0  0  0  0  0  0  0  0  0  0
    0.7301   -1.2271   -0.2595 C   0  0  0  0  0  0  0  0  0  0  0  0
    1.6391   -0.1205    0.2824 C   0  0  0  0  0  0  0  0  0  0  0  0
    1.3595    1.1584   -0.2638 O   0  0  0  0  0  0  0  0  0  0  0  0
   -0.4184    1.3980    0.1023 H   0  0  0  0  0  0  0  0  0  0  0  0
   -1.6132    1.2375    1.2573 H   0  0  0  0  0  0  0  0  0  0  0  0
   -1.9840    1.8967   -0.2296 H   0  0  0  0  0  0  0  0  0  0  0  0
   -1.5683   -0.1740   -1.3797 H   0  0  0  0  0  0  0  0  0  0  0  0
   -2.7025   -0.4578   -0.0793 H   0  0  0  0  0  0  0  0  0  0  0  0
   -1.1426   -2.2333    0.1201 H   0  0  0  0  0  0  0  0  0  0  0  0
   -0.6771   -1.1321    1.3843 H   0  0  0  0  0  0  0  0  0  0  0  0
    0.7011   -1.1552   -1.3525 H   0  0  0  0  0  0  0  0  0  0  0  0
    1.1982   -2.1979   -0.0464 H   0  0  0  0  0  0  0  0  0  0  0  0
    2.7001   -0.3540    0.1078 H   0  0  0  0  0  0  0  0  0  0  0  0
    1.5265   -0.0298    1.3709 H   0  0  0  0  0  0  0  0  0  0  0  0
    2.0516    1.4636   -0.8840 H   0  0  0  0  0  0  0  0  0  0  0  0
  1  2  1  0  0  0  0
  2  3  1  0  0  0  0
  3  4  1  0  0  0  0
  4  5  1  0  0  0  0
  5  6  1  0  0  0  0
  1  7  1  0  0  0  0
  1  8  1  0  0  0  0
  1  9  1  0  0  0  0
  2 10  1  0  0  0  0
  2 11  1  0  0  0  0
  3 12  1  0  0  0  0
  3 13  1  0  0  0  0
  4 14  1  0  0  0  0
  4 15  1  0  0  0  0
  5 16  1  0  0  0  0
  5 17  1  0  0  0  0
  6 18  1  0  0  0  0
M  CHG  1   1   1
M  END
