36
0.073
N           -4.76530   1.02576  -1.54278
C           -4.77313  -0.15772  -0.64537
C           -4.16645   0.19820   0.70232
O           -2.86256   0.75236   0.56372
C           -1.84723  -0.12694   0.40869
C           -0.52308   0.43410   0.29229
C           -0.32107   1.82013   0.34800
C            0.93118   2.36337   0.24551
C            0.59149  -0.41898   0.13057
C            0.41872  -1.82501   0.08119
C           -0.88968  -2.35292   0.20119
C           -1.97140  -1.54503   0.35891
C            1.55058  -2.64718  -0.07903
C            2.80482  -2.11590  -0.18526
C            3.01411  -0.71681  -0.13676
C            4.28792  -0.14245  -0.23789
C            4.45173   1.22675  -0.18227
C            3.36713   2.06290  -0.02584
C            2.06848   1.54153   0.08018
C            1.89283   0.13647   0.02315
H           -3.80663   1.39489  -1.62544
H           -5.35087   1.78274  -1.15916
H           -5.11159   0.80402  -2.49008
H           -4.19774  -0.96318  -1.11402
H           -5.79596  -0.53633  -0.52884
H           -4.13274  -0.64271   1.40442
H           -4.76617   0.97809   1.18710
H           -1.18263   2.45311   0.48303
H            1.06249   3.43156   0.29439
H           -1.01720  -3.42258   0.16986
H           -2.94358  -1.99375   0.45293
H            1.41462  -3.71553  -0.11534
H            3.65685  -2.76429  -0.30586
H            5.14474  -0.78441  -0.35879
H            5.44198   1.64795  -0.26097
H            3.50908   3.13009   0.01803
