 xtb: 6.5.1 (fef0646)
          01242310123D

 36 39  0     0  0            999 V2000
   -4.7653    1.0258   -1.5428 N   0  0  0  0  0  0  0  0  0  0  0  0
   -4.7731   -0.1577   -0.6454 C   0  0  0  0  0  0  0  0  0  0  0  0
   -4.1664    0.1982    0.7023 C   0  0  0  0  0  0  0  0  0  0  0  0
   -2.8626    0.7524    0.5637 O   0  0  0  0  0  0  0  0  0  0  0  0
   -1.8472   -0.1269    0.4087 C   0  0  0  0  0  0  0  0  0  0  0  0
   -0.5231    0.4341    0.2923 C   0  0  0  0  0  0  0  0  0  0  0  0
   -0.3211    1.8201    0.3480 C   0  0  0  0  0  0  0  0  0  0  0  0
    0.9312    2.3634    0.2455 C   0  0  0  0  0  0  0  0  0  0  0  0
    0.5915   -0.4190    0.1306 C   0  0  0  0  0  0  0  0  0  0  0  0
    0.4187   -1.8250    0.0812 C   0  0  0  0  0  0  0  0  0  0  0  0
   -0.8897   -2.3529    0.2012 C   0  0  0  0  0  0  0  0  0  0  0  0
   -1.9714   -1.5450    0.3589 C   0  0  0  0  0  0  0  0  0  0  0  0
    1.5506   -2.6472   -0.0790 C   0  0  0  0  0  0  0  0  0  0  0  0
    2.8048   -2.1159   -0.1853 C   0  0  0  0  0  0  0  0  0  0  0  0
    3.0141   -0.7168   -0.1368 C   0  0  0  0  0  0  0  0  0  0  0  0
    4.2879   -0.1425   -0.2379 C   0  0  0  0  0  0  0  0  0  0  0  0
    4.4517    1.2267   -0.1823 C   0  0  0  0  0  0  0  0  0  0  0  0
    3.3671    2.0629   -0.0259 C   0  0  0  0  0  0  0  0  0  0  0  0
    2.0685    1.5415    0.0802 C   0  0  0  0  0  0  0  0  0  0  0  0
    1.8928    0.1365    0.0231 C   0  0  0  0  0  0  0  0  0  0  0  0
   -3.8066    1.3949   -1.6254 H   0  0  0  0  0  0  0  0  0  0  0  0
   -5.3509    1.7828   -1.1591 H   0  0  0  0  0  0  0  0  0  0  0  0
   -5.1116    0.8040   -2.4901 H   0  0  0  0  0  0  0  0  0  0  0  0
   -4.1977   -0.9632   -1.1140 H   0  0  0  0  0  0  0  0  0  0  0  0
   -5.7960   -0.5363   -0.5288 H   0  0  0  0  0  0  0  0  0  0  0  0
   -4.1327   -0.6427    1.4044 H   0  0  0  0  0  0  0  0  0  0  0  0
   -4.7662    0.9781    1.1871 H   0  0  0  0  0  0  0  0  0  0  0  0
   -1.1826    2.4531    0.4830 H   0  0  0  0  0  0  0  0  0  0  0  0
    1.0625    3.4316    0.2944 H   0  0  0  0  0  0  0  0  0  0  0  0
   -1.0172   -3.4226    0.1699 H   0  0  0  0  0  0  0  0  0  0  0  0
   -2.9436   -1.9937    0.4529 H   0  0  0  0  0  0  0  0  0  0  0  0
    1.4146   -3.7155   -0.1153 H   0  0  0  0  0  0  0  0  0  0  0  0
    3.6568   -2.7643   -0.3059 H   0  0  0  0  0  0  0  0  0  0  0  0
    5.1447   -0.7844   -0.3588 H   0  0  0  0  0  0  0  0  0  0  0  0
    5.4420    1.6479   -0.2610 H   0  0  0  0  0  0  0  0  0  0  0  0
    3.5091    3.1301    0.0180 H   0  0  0  0  0  0  0  0  0  0  0  0
  1  2  1  0  0  0  0
  2  3  1  0  0  0  0
  3  4  1  0  0  0  0
  4  5  1  0  0  0  0
  5  6  4  0  0  0  0
  6  7  4  0  0  0  0
  7  8  2  0  0  0  0
  6  9  4  0  0  0  0
  9 10  4  0  0  0  0
 10 11  4  0  0  0  0
  5 12  4  0  0  0  0
 11 12  4  0  0  0  0
 10 13  4  0  0  0  0
 13 14  2  0  0  0  0
 14 15  4  0  0  0  0
 15 16  4  0  0  0  0
 16 17  4  0  0  0  0
 17 18  4  0  0  0  0
  8 19  4  0  0  0  0
 18 19  4  0  0  0  0
  9 20  4  0  0  0  0
 15 20  4  0  0  0  0
 19 20  4  0  0  0  0
  1 21  1  0  0  0  0
  1 22  1  0  0  0  0
  1 23  1  0  0  0  0
  2 24  1  0  0  0  0
  2 25  1  0  0  0  0
  3 26  1  0  0  0  0
  3 27  1  0  0  0  0
  7 28  1  0  0  0  0
  8 29  1  0  0  0  0
 11 30  1  0  0  0  0
 12 31  1  0  0  0  0
 13 32  1  0  0  0  0
 14 33  1  0  0  0  0
 16 34  1  0  0  0  0
 17 35  1  0  0  0  0
 18 36  1  0  0  0  0
M  CHG  1   1   1
M  END
