 xtb: 6.5.1 (fef0646)
          01242310033D

 21 21  0     0  0            999 V2000
   -1.8860   -0.0000    0.7705 N   0  0  0  0  0  0  0  0  0  0  0  0
   -1.0950   -0.0000   -0.5005 C   0  0  0  0  0  0  0  0  0  0  0  0
   -0.2306    1.2740   -0.6352 C   0  0  0  0  0  0  0  0  0  0  0  0
    0.9726    1.2703    0.3245 C   0  0  0  0  0  0  0  0  0  0  0  0
    1.8243    0.0001    0.1580 C   0  0  0  0  0  0  0  0  0  0  0  0
    0.9728   -1.2703    0.3244 C   0  0  0  0  0  0  0  0  0  0  0  0
   -0.2305   -1.2740   -0.6351 C   0  0  0  0  0  0  0  0  0  0  0  0
   -2.4922    0.8302    0.8352 H   0  0  0  0  0  0  0  0  0  0  0  0
   -1.2726   -0.0002    1.5960 H   0  0  0  0  0  0  0  0  0  0  0  0
   -2.4924   -0.8302    0.8351 H   0  0  0  0  0  0  0  0  0  0  0  0
   -1.8290   -0.0001   -1.3278 H   0  0  0  0  0  0  0  0  0  0  0  0
   -0.8544    2.1587   -0.4570 H   0  0  0  0  0  0  0  0  0  0  0  0
    0.1270    1.3692   -1.6674 H   0  0  0  0  0  0  0  0  0  0  0  0
    0.6211    1.3439    1.3600 H   0  0  0  0  0  0  0  0  0  0  0  0
    1.5893    2.1662    0.1672 H   0  0  0  0  0  0  0  0  0  0  0  0
    2.6606    0.0001    0.8706 H   0  0  0  0  0  0  0  0  0  0  0  0
    2.2897    0.0001   -0.8351 H   0  0  0  0  0  0  0  0  0  0  0  0
    0.6214   -1.3441    1.3600 H   0  0  0  0  0  0  0  0  0  0  0  0
    1.5896   -2.1661    0.1670 H   0  0  0  0  0  0  0  0  0  0  0  0
   -0.8543   -2.1587   -0.4567 H   0  0  0  0  0  0  0  0  0  0  0  0
    0.1269   -1.3695   -1.6673 H   0  0  0  0  0  0  0  0  0  0  0  0
  1  2  1  0  0  0  0
  2  3  1  0  0  0  0
  3  4  1  0  0  0  0
  4  5  1  0  0  0  0
  5  6  1  0  0  0  0
  2  7  1  0  0  0  0
  6  7  1  0  0  0  0
  1  8  1  0  0  0  0
  1  9  1  0  0  0  0
  1 10  1  0  0  0  0
  2 11  1  0  0  0  0
  3 12  1  0  0  0  0
  3 13  1  0  0  0  0
  4 14  1  0  0  0  0
  4 15  1  0  0  0  0
  5 16  1  0  0  0  0
  5 17  1  0  0  0  0
  6 18  1  0  0  0  0
  6 19  1  0  0  0  0
  7 20  1  0  0  0  0
  7 21  1  0  0  0  0
M  CHG  1   1   1
M  END
