28
 xtb: 6.5.1 (fef0646)
N           -2.82112696797829        0.86875919974035        1.00226122749355
C           -2.02794898517165        1.74312242492966        0.07218554259049
C           -2.60337242086052        1.68138936308037       -1.34109715890936
C           -0.56689185758202        1.35761248212715        0.08053030228002
C            0.44162674434430        2.33774643720342        0.17042749092642
C            1.76039281199548        1.99212754069037        0.17287907213560
C           -0.20440907585441        0.04424343975690       -0.01772194414755
C            1.14948935667693       -0.35334711688333       -0.01685448590256
C            2.15317532045219        0.63743871830515        0.08204742449182
C            3.50878353412167        0.23486071009725        0.08562758164320
C            3.84130462918376       -1.08399176699004       -0.00302234624474
C            2.84456801103627       -2.06526518407762       -0.10113298136671
C            1.52917676989008       -1.71155391827151       -0.10898300186529
Cl          -2.77682035887124       -2.17422822598382       -0.04183646564473
H           -2.84606043997937       -0.01848458044624        0.75266300021921
H           -3.78938424072509        1.31145581709107        1.10286762705214
H           -2.40172536541167        1.01795218428335        1.98367717373340
H           -2.06800012928971        2.83372275666370        0.38156814614616
H           -2.58611861260924        0.63733414410915       -1.68193726086446
H           -2.05011443554715        2.27024348863295       -2.05505481271800
H           -3.65009267080317        1.99921041918520       -1.35822756191587
H            0.16998639720108        3.38319814810034        0.24264332221077
H            2.53111438894766        2.74666331193283        0.25229151094209
H           -0.97658254498648       -0.69700984828358       -0.09641276970735
H            4.27375366099634        0.97756453507098        0.16529279084055
H            4.86686831741081       -1.39036337172523        0.00006696987559
H            3.10520544124353       -3.10719032634219       -0.17701039615880
H            0.74460120046577       -2.45714087791486       -0.18757343113236
