28
 xtb: 6.5.1 (fef0646)
N           -2.82710159434985        0.91436016931134        1.01405363731568
C           -2.02142740616706        1.74111549656916        0.05454464168193
C           -2.60005049772063        1.65063301866718       -1.35336122819781
C           -0.56429506199088        1.34498837010291        0.07736395518238
C            0.43936383672372        2.32817650166713        0.19121520612529
C            1.75939531714488        1.98978857346327        0.19989810541315
C           -0.19656179341917        0.03332428797958       -0.03468450278626
C            1.16076446084409       -0.35702877514396       -0.02758032122102
C            2.15860590191500        0.63839791323094        0.09261714911553
C            3.51718613548445        0.24623779054960        0.10077837330708
C            3.86046667122704       -1.06863851170387       -0.00456224595408
C            2.87077775983290       -2.05488597095061       -0.12374189459461
C            1.55222083946872       -1.71124780110038       -0.13569417787452
Cl          -2.84162326759163       -2.18767003332078       -0.02602014067593
H           -2.85038371368764       -0.00543937619295        0.76651530067204
H           -3.79013775577370        1.32700725546007        1.10203377456573
H           -2.40340867909688        1.03809385592647        1.98648070077381
H           -2.06285444075268        2.83560964783218        0.36834208424094
H           -2.58638891401683        0.62655925935824       -1.67973840602632
H           -2.04877165613930        2.25685773397087       -2.06195894151942
H           -3.64876008235192        1.99138206540534       -1.36334190750106
H            0.16759702908514        3.37974050347717        0.25254644324545
H            2.52951555567315        2.74676258516491        0.26559076938632
H           -0.97341783144901       -0.70088258032880       -0.10561212244844
H            4.27416075289306        0.98242346634513        0.17477135318996
H            4.87305357946124       -1.38370454780841        0.00050641880438
H            3.11506947485888       -3.10328301053864       -0.18751620175795
H            0.75315859460073       -2.45852386569278       -0.20003290409178
