 xtb: 6.5.1 (fef0646)
          02032321553D

 28 28  0     0  0            999 V2000
   -2.8174    1.0169    1.0598 N   0  0  0  0  0  0  0  0  0  0  0  0
   -2.0159    1.7942    0.0603 C   0  0  0  0  0  0  0  0  0  0  0  0
   -2.6139    1.6663   -1.3355 C   0  0  0  0  0  0  0  0  0  0  0  0
   -0.5645    1.3776    0.0797 C   0  0  0  0  0  0  0  0  0  0  0  0
    0.4525    2.3485    0.1763 C   0  0  0  0  0  0  0  0  0  0  0  0
    1.7678    1.9930    0.1812 C   0  0  0  0  0  0  0  0  0  0  0  0
   -0.2158    0.0597   -0.0185 C   0  0  0  0  0  0  0  0  0  0  0  0
    1.1366   -0.3478   -0.0158 C   0  0  0  0  0  0  0  0  0  0  0  0
    2.1482    0.6355    0.0868 C   0  0  0  0  0  0  0  0  0  0  0  0
    3.5015    0.2260    0.0896 C   0  0  0  0  0  0  0  0  0  0  0  0
    3.8270   -1.0940   -0.0046 C   0  0  0  0  0  0  0  0  0  0  0  0
    2.8238   -2.0682   -0.1065 C   0  0  0  0  0  0  0  0  0  0  0  0
    1.5098   -1.7078   -0.1123 C   0  0  0  0  0  0  0  0  0  0  0  0
   -2.7367   -2.3302   -0.0894 Cl  0  0  0  0  0  0  0  0  0  0  0  0
   -2.8476    0.0203    0.7894 H   0  0  0  0  0  0  0  0  0  0  0  0
   -3.7874    1.3556    1.1122 H   0  0  0  0  0  0  0  0  0  0  0  0
   -2.3989    1.0762    1.9974 H   0  0  0  0  0  0  0  0  0  0  0  0
   -2.0563    2.8538    0.3606 H   0  0  0  0  0  0  0  0  0  0  0  0
   -2.5938    0.6283   -1.6663 H   0  0  0  0  0  0  0  0  0  0  0  0
   -2.0541    2.2540   -2.0638 H   0  0  0  0  0  0  0  0  0  0  0  0
   -3.6520    1.9983   -1.3575 H   0  0  0  0  0  0  0  0  0  0  0  0
    0.1755    3.3869    0.2450 H   0  0  0  0  0  0  0  0  0  0  0  0
    2.5350    2.7450    0.2561 H   0  0  0  0  0  0  0  0  0  0  0  0
   -0.9815   -0.6913   -0.0978 H   0  0  0  0  0  0  0  0  0  0  0  0
    4.2726    0.9739    0.1676 H   0  0  0  0  0  0  0  0  0  0  0  0
    4.8622   -1.3950   -0.0009 H   0  0  0  0  0  0  0  0  0  0  0  0
    3.0974   -3.1084   -0.1800 H   0  0  0  0  0  0  0  0  0  0  0  0
    0.7377   -2.4547   -0.1895 H   0  0  0  0  0  0  0  0  0  0  0  0
  1  2  1  0  0  0  0
  2  3  1  0  0  0  0
  2  4  1  0  0  0  0
  4  5  4  0  0  0  0
  5  6  2  0  0  0  0
  4  7  2  0  0  0  0
  7  8  4  0  0  0  0
  6  9  4  0  0  0  0
  8  9  4  0  0  0  0
  9 10  4  0  0  0  0
 10 11  2  0  0  0  0
 11 12  4  0  0  0  0
  8 13  4  0  0  0  0
 12 13  2  0  0  0  0
  1 15  1  0  0  0  0
  1 16  1  0  0  0  0
  1 17  1  0  0  0  0
  2 18  1  0  0  0  0
  3 19  1  0  0  0  0
  3 20  1  0  0  0  0
  3 21  1  0  0  0  0
  5 22  1  0  0  0  0
  6 23  1  0  0  0  0
  7 24  1  0  0  0  0
 10 25  1  0  0  0  0
 11 26  1  0  0  0  0
 12 27  1  0  0  0  0
 13 28  1  0  0  0  0
M  END
