 xtb: 6.5.1 (fef0646)
          02032318273D

 28 28  0     0  0            999 V2000
   -2.8039    0.2200    1.4885 N   0  0  0  0  0  0  0  0  0  0  0  0
   -2.3936    1.6373    1.2737 C   0  0  0  0  0  0  0  0  0  0  0  0
   -1.6143    1.8179   -0.0271 C   0  0  0  0  0  0  0  0  0  0  0  0
   -0.3989    0.9425   -0.1038 C   0  0  0  0  0  0  0  0  0  0  0  0
    0.7786    1.3298    0.4753 C   0  0  0  0  0  0  0  0  0  0  0  0
    1.9228    0.5005    0.4395 C   0  0  0  0  0  0  0  0  0  0  0  0
    3.1498    0.8860    1.0269 C   0  0  0  0  0  0  0  0  0  0  0  0
    4.2338    0.0618    0.9748 C   0  0  0  0  0  0  0  0  0  0  0  0
    4.1492   -1.1837    0.3372 C   0  0  0  0  0  0  0  0  0  0  0  0
    2.9818   -1.5869   -0.2386 C   0  0  0  0  0  0  0  0  0  0  0  0
    1.8375   -0.7572   -0.2036 C   0  0  0  0  0  0  0  0  0  0  0  0
    0.6085   -1.1421   -0.7852 C   0  0  0  0  0  0  0  0  0  0  0  0
   -0.4729   -0.3161   -0.7319 C   0  0  0  0  0  0  0  0  0  0  0  0
   -3.8701   -0.9907   -1.6416 Cl  0  0  0  0  0  0  0  0  0  0  0  0
   -3.2814   -0.1453    0.6506 H   0  0  0  0  0  0  0  0  0  0  0  0
   -3.4349    0.1097    2.2951 H   0  0  0  0  0  0  0  0  0  0  0  0
   -1.9780   -0.3787    1.6462 H   0  0  0  0  0  0  0  0  0  0  0  0
   -1.7833    1.9705    2.1214 H   0  0  0  0  0  0  0  0  0  0  0  0
   -3.2804    2.2831    1.2759 H   0  0  0  0  0  0  0  0  0  0  0  0
   -1.3149    2.8648   -0.1558 H   0  0  0  0  0  0  0  0  0  0  0  0
   -2.2662    1.5950   -0.8787 H   0  0  0  0  0  0  0  0  0  0  0  0
    0.8378    2.2828    0.9710 H   0  0  0  0  0  0  0  0  0  0  0  0
    3.2153    1.8428    1.5169 H   0  0  0  0  0  0  0  0  0  0  0  0
    5.1643    0.3666    1.4259 H   0  0  0  0  0  0  0  0  0  0  0  0
    5.0156   -1.8247    0.3043 H   0  0  0  0  0  0  0  0  0  0  0  0
    2.9170   -2.5442   -0.7277 H   0  0  0  0  0  0  0  0  0  0  0  0
    0.5377   -2.1019   -1.2685 H   0  0  0  0  0  0  0  0  0  0  0  0
   -1.4111   -0.6239   -1.1633 H   0  0  0  0  0  0  0  0  0  0  0  0
  1  2  1  0  0  0  0
  2  3  1  0  0  0  0
  3  4  1  0  0  0  0
  4  5  2  0  0  0  0
  5  6  4  0  0  0  0
  6  7  4  0  0  0  0
  7  8  2  0  0  0  0
  8  9  4  0  0  0  0
  9 10  2  0  0  0  0
  6 11  4  0  0  0  0
 10 11  4  0  0  0  0
 11 12  4  0  0  0  0
  4 13  4  0  0  0  0
 12 13  2  0  0  0  0
  1 15  1  0  0  0  0
  1 16  1  0  0  0  0
  1 17  1  0  0  0  0
  2 18  1  0  0  0  0
  2 19  1  0  0  0  0
  3 20  1  0  0  0  0
  3 21  1  0  0  0  0
  5 22  1  0  0  0  0
  7 23  1  0  0  0  0
  8 24  1  0  0  0  0
  9 25  1  0  0  0  0
 10 26  1  0  0  0  0
 12 27  1  0  0  0  0
 13 28  1  0  0  0  0
M  END
