  23

 N         -3.1601013088       -1.3787704467       -0.4897849646
 C         -1.9753230858       -1.8749605444        0.2074400122
 C         -0.7881686058       -1.0065742187        0.0025338846
 C          0.4538703973       -1.3673378058        0.3095884772
 C          1.6196798603       -0.4972081974        0.1460224209
 C          1.5015307157        0.8920568850        0.1689315420
 C          2.6097645986        1.6968045295        0.0117264515
 C          3.8564549175        1.1319949247       -0.1685657017
 C          3.9934023312       -0.2416625455       -0.1875482054
 C          2.8872830773       -1.0492562719       -0.0295952883
 Cl        -2.9400829611        1.7828537052        0.5512434841
 H         -3.9569652963       -1.9850297239       -0.3247862750
 H         -2.9945067892       -1.3948215427       -1.4904882226
 H         -3.0563359759        0.5155918244        0.1396051731
 H         -1.7450402132       -2.8992813383       -0.1142037738
 H         -2.1923772848       -1.9354113471        1.2808995305
 H         -0.9613068945       -0.0246236692       -0.3989844614
 H          0.6244983225       -2.3564864868        0.7002804065
 H          0.5346843897        1.3378240115        0.3273611045
 H          2.5031268494        2.7694604402        0.0323974022
 H          4.7219474445        1.7626419566       -0.2927383327
 H          4.9667709996       -0.6835059230       -0.3268583497
 H          2.9929192202       -2.1210246625       -0.0472263508
          23
        -32.80995147
 N         -2.5524710607       -0.6329660467       -0.8722454515
 C         -1.7896634070       -0.2914336470        0.3219853613
 C         -0.3298674892       -0.5349403431        0.1747119205
 C          0.5855552351        0.4226700801        0.2983071647
 C          2.0286343781        0.2298078471        0.1455143834
 C          2.8539376659        1.3304639911       -0.0814658406
 C          4.2163240714        1.1767130764       -0.2252094626
 C          4.7836816726       -0.0790323296       -0.1423347759
 C          3.9839836346       -1.1805454525        0.0874365488
 C          2.6209080439       -1.0296296670        0.2315362110
 Cl        -5.6017055241        0.2899139202        0.1010548798
 H         -2.4115158404       -1.6132824483       -1.0920358702
 H         -2.1744467668       -0.1216341055       -1.6624147246
 H         -4.3793296670       -0.0828795679       -0.2948349204
 H         -2.1829281590       -0.8580496622        1.1761573520
 H         -1.9729624619        0.7616353565        0.5683626054
 H         -0.0214567127       -1.5323804498       -0.0829476225
 H          0.2524517800        1.4235502180        0.5161497990
 H          2.4121341208        2.3103493440       -0.1478013310
 H          4.8396631690        2.0383843027       -0.4022611987
 H          5.8492076599       -0.1988339685       -0.2545058002
 H          4.4270200759       -2.1610403963        0.1568198276
 H          2.0082073086       -1.8925178598        0.4278229348
