21
0.0
N           -2.43044   0.00000   0.06639
C           -0.98171   0.00001  -0.32236
C           -0.26334   1.26426   0.18515
C            1.22335   1.26967  -0.21595
C            1.93855   0.00001   0.28039
C            1.22337  -1.26967  -0.21592
C           -0.26335  -1.26427   0.18512
H           -2.90871   0.83034  -0.29648
H           -2.52379  -0.00038   1.08645
H           -2.90885  -0.83002  -0.29702
H           -0.92864   0.00002  -1.42334
H           -0.35056   1.30470   1.27515
H           -0.77277   2.16138  -0.18469
H            1.72274   2.16892   0.16722
H            1.30620   1.33096  -1.30686
H            1.96146   0.00001   1.37600
H            2.98976   0.00001  -0.03573
H            1.72275  -2.16891   0.16729
H            1.30624  -1.33100  -1.30683
H           -0.35059  -1.30475   1.27511
H           -0.77278  -2.16137  -0.18478
