  14

 N          1.1162622313       -0.7260461756       -0.0720194661
 C          2.5299931916       -0.3096366226        0.0185529291
 C          2.7479582746        0.4251021812        1.3395976476
 C          2.6155461027       -0.4708389383        2.4715708488
 C          2.5019297000       -1.2388159306        3.3828254741
 Cl        -0.5534183251        1.8342733416        0.0003647414
 H          0.9220782423       -1.2434669140       -0.9313686626
 H          0.5021927949        0.1291144834       -0.0594007168
 H          0.8666281076       -1.2909581848        0.7446699399
 H          2.7498219395        0.3648477269       -0.8076505365
 H          3.1757820892       -1.1871068750       -0.0373177051
 H          2.0069968910        1.2246656871        1.4240838961
 H          3.7419643681        0.8735895786        1.3593045493
 H          2.4113243923       -1.8933733579        4.1972170607
