  14

 N          1.1045600000        0.2130400000        0.3244000000
 C          2.5571300000        0.0891100000        0.1575300000
 C          3.0250100000        0.7313100000       -1.1483100000
 C          2.6507400000        2.2044700000       -1.1601100000
 C          2.3296800000        3.4681400000       -1.1702400000
 Cl        -0.7293200000       -1.7427900000       -0.6061300000
 H          0.7339200000       -0.2089000000        1.1853800000
 H          0.5771100000       -0.4011600000       -0.3625100000
 H          0.6991300000        1.1437800000        0.2033700000
 H          2.7978200000       -0.9799200000        0.1818100000
 H          3.0123800000        0.5755900000        1.0257600000
 H          2.5636000000        0.2359900000       -2.0097100000
 H          4.1116900000        0.6348000000       -1.2434200000
 H          2.0742400000        4.5038600000       -1.1959700000
