27
0.275
N           -3.55980  -0.09284   1.48733
C           -3.49157   0.80149   0.29492
C           -2.77778   0.15244  -0.88925
C           -1.34058  -0.16709  -0.60335
C           -0.39786   0.84780  -0.54748
C            0.95182   0.57948  -0.25772
C            1.92291   1.59553  -0.19936
C            3.23790   1.29489   0.08922
C            3.62467  -0.01626   0.32730
C            2.70040  -1.03887   0.27810
C            1.35081  -0.77041  -0.01389
C            0.37850  -1.78335  -0.07551
C           -0.93620  -1.48071  -0.36376
H           -4.06541  -0.95759   1.26383
H           -4.03985   0.36141   2.27293
H           -2.61690  -0.35176   1.80025
H           -2.97669   1.72830   0.57128
H           -4.50817   1.09791   0.00992
H           -2.82639   0.80240  -1.76988
H           -3.30213  -0.76473  -1.17405
H           -0.70223   1.86219  -0.73241
H            1.62852   2.61430  -0.38342
H            3.97086   2.08395   0.13013
H            4.65555  -0.23690   0.55195
H            3.00607  -2.05414   0.46318
H            0.67131  -2.80310   0.10510
H           -1.66627  -2.27007  -0.41141
