16
0.0
N            0.36590  -1.71521  -0.00003
C            1.50236  -0.74633  -0.00009
C            1.40658   0.35290   1.08480
C            1.72532   1.40810   0.00005
C            1.40634   0.35309  -1.08480
Cl          -2.52266   0.26109   0.00003
H            0.38892  -2.31407   0.83514
H            0.38889  -2.31421  -0.83510
H           -0.53123  -1.20298  -0.00004
H            2.48245  -1.25138  -0.00025
H            2.15465   0.27172   1.88460
H            0.39837   0.43994   1.50665
H            2.77438   1.73194  -0.00003
H            1.05625   2.27959   0.00018
H            2.15425   0.27206  -1.88478
H            0.39806   0.44021  -1.50642
