16
0.0
N            0.34370  -1.69803   0.00101
C            1.49424  -0.75619   0.00503
C            1.40941   0.34952   1.08576
C            1.74943   1.39615  -0.00178
C            1.42395   0.34135  -1.08544
Cl          -2.52634   0.26758  -0.00174
H            0.35045  -2.30033   0.83853
H            0.35792  -2.30293  -0.83545
H           -0.54891  -1.17135  -0.00351
H            2.46458  -1.28064   0.01339
H            2.15269   0.25974   1.89008
H            0.39947   0.45236   1.50249
H            2.80353   1.70639   0.00410
H            1.09130   2.27671  -0.00967
H            2.17804   0.24541  -1.87902
H            0.41987   0.44076  -1.51639
