 xtb: 6.5.1 (fef0646)
          01242317103D

 21 19  0     0  0            999 V2000
   -0.3919   -1.0146    1.0185 N   0  0  0  0  0  0  0  0  0  0  0  0
    0.3129   -1.4614   -0.2181 C   0  0  0  0  0  0  0  0  0  0  0  0
    0.5842   -0.3158   -1.1887 C   0  0  0  0  0  0  0  0  0  0  0  0
    1.4706    0.8089   -0.6407 C   0  0  0  0  0  0  0  0  0  0  0  0
    2.9219    0.3947   -0.3296 C   0  0  0  0  0  0  0  0  0  0  0  0
    3.1382   -0.0980    1.0954 C   0  0  0  0  0  0  0  0  0  0  0  0
   -3.2352    0.7537   -0.0091 Cl  0  0  0  0  0  0  0  0  0  0  0  0
   -1.2658   -0.5170    0.7745 H   0  0  0  0  0  0  0  0  0  0  0  0
    0.1860   -0.3617    1.5658 H   0  0  0  0  0  0  0  0  0  0  0  0
   -0.6383   -1.8038    1.6331 H   0  0  0  0  0  0  0  0  0  0  0  0
   -0.2914   -2.2322   -0.7138 H   0  0  0  0  0  0  0  0  0  0  0  0
    1.2491   -1.9658    0.0432 H   0  0  0  0  0  0  0  0  0  0  0  0
   -0.3793    0.1040   -1.5051 H   0  0  0  0  0  0  0  0  0  0  0  0
    1.0375   -0.7097   -2.1073 H   0  0  0  0  0  0  0  0  0  0  0  0
    1.0152    1.2419    0.2572 H   0  0  0  0  0  0  0  0  0  0  0  0
    1.4783    1.6322   -1.3690 H   0  0  0  0  0  0  0  0  0  0  0  0
    3.5937    1.2459   -0.5116 H   0  0  0  0  0  0  0  0  0  0  0  0
    3.2423   -0.3687   -1.0504 H   0  0  0  0  0  0  0  0  0  0  0  0
    4.1831   -0.3549    1.2838 H   0  0  0  0  0  0  0  0  0  0  0  0
    2.5463   -0.9851    1.3187 H   0  0  0  0  0  0  0  0  0  0  0  0
    2.8559    0.6654    1.8229 H   0  0  0  0  0  0  0  0  0  0  0  0
  1  2  1  0  0  0  0
  2  3  1  0  0  0  0
  3  4  1  0  0  0  0
  4  5  1  0  0  0  0
  5  6  1  0  0  0  0
  1  8  1  0  0  0  0
  1  9  1  0  0  0  0
  1 10  1  0  0  0  0
  2 11  1  0  0  0  0
  2 12  1  0  0  0  0
  3 13  1  0  0  0  0
  3 14  1  0  0  0  0
  4 15  1  0  0  0  0
  4 16  1  0  0  0  0
  5 17  1  0  0  0  0
  5 18  1  0  0  0  0
  6 19  1  0  0  0  0
  6 20  1  0  0  0  0
  6 21  1  0  0  0  0
M  END
