 xtb: 6.5.1 (fef0646)
          01242310123D

 16 14  0     0  0            999 V2000
   -0.2198   -1.4463    1.0186 N   0  0  0  0  0  0  0  0  0  0  0  0
    0.7655   -1.8112   -0.0329 C   0  0  0  0  0  0  0  0  0  0  0  0
    1.2390   -0.6024   -0.8240 C   0  0  0  0  0  0  0  0  0  0  0  0
    2.0501    0.6292    0.1963 S   0  0  0  0  0  0  0  0  0  0  0  0
    0.7129    1.7822    0.3659 C   0  0  0  0  0  0  0  0  0  0  0  0
   -2.8067    0.3252   -0.4659 Cl  0  0  0  0  0  0  0  0  0  0  0  0
   -0.5778   -2.2724    1.5249 H   0  0  0  0  0  0  0  0  0  0  0  0
   -1.0296   -0.9514    0.6050 H   0  0  0  0  0  0  0  0  0  0  0  0
    0.2063   -0.8122    1.7158 H   0  0  0  0  0  0  0  0  0  0  0  0
    0.3243   -2.5582   -0.7061 H   0  0  0  0  0  0  0  0  0  0  0  0
    1.6274   -2.3037    0.4344 H   0  0  0  0  0  0  0  0  0  0  0  0
    0.3986   -0.1305   -1.3398 H   0  0  0  0  0  0  0  0  0  0  0  0
    1.9470   -0.9018   -1.6032 H   0  0  0  0  0  0  0  0  0  0  0  0
    0.4260    2.1755   -0.6078 H   0  0  0  0  0  0  0  0  0  0  0  0
    1.0214    2.6146    0.9957 H   0  0  0  0  0  0  0  0  0  0  0  0
   -0.1547    1.3099    0.8215 H   0  0  0  0  0  0  0  0  0  0  0  0
  1  2  1  0  0  0  0
  2  3  1  0  0  0  0
  3  4  1  0  0  0  0
  4  5  1  0  0  0  0
  1  7  1  0  0  0  0
  1  8  1  0  0  0  0
  1  9  1  0  0  0  0
  2 10  1  0  0  0  0
  2 11  1  0  0  0  0
  3 12  1  0  0  0  0
  3 13  1  0  0  0  0
  5 14  1  0  0  0  0
  5 15  1  0  0  0  0
  5 16  1  0  0  0  0
M  END
