 xtb: 6.5.1 (fef0646)
          02032321493D

 16 14  0     0  0            999 V2000
   -0.2739   -1.8048   -0.6037 N   0  0  0  0  0  0  0  0  0  0  0  0
    0.6938   -1.6682    0.5204 C   0  0  0  0  0  0  0  0  0  0  0  0
    1.0376   -0.2154    0.7965 C   0  0  0  0  0  0  0  0  0  0  0  0
    1.8590    0.5744   -0.5883 S   0  0  0  0  0  0  0  0  0  0  0  0
    1.9816    2.2004    0.1071 C   0  0  0  0  0  0  0  0  0  0  0  0
   -3.0635    0.1423    0.2171 Cl  0  0  0  0  0  0  0  0  0  0  0  0
    0.1214   -1.4122   -1.4715 H   0  0  0  0  0  0  0  0  0  0  0  0
   -1.1372   -1.2793   -0.3985 H   0  0  0  0  0  0  0  0  0  0  0  0
   -0.5305   -2.7856   -0.7836 H   0  0  0  0  0  0  0  0  0  0  0  0
    1.6099   -2.2239    0.2862 H   0  0  0  0  0  0  0  0  0  0  0  0
    0.2802   -2.1406    1.4207 H   0  0  0  0  0  0  0  0  0  0  0  0
    1.6857   -0.1224    1.6721 H   0  0  0  0  0  0  0  0  0  0  0  0
    0.1288    0.3498    1.0154 H   0  0  0  0  0  0  0  0  0  0  0  0
    2.4739    2.8687   -0.5956 H   0  0  0  0  0  0  0  0  0  0  0  0
    2.5614    2.1780    1.0271 H   0  0  0  0  0  0  0  0  0  0  0  0
    0.9923    2.5963    0.3254 H   0  0  0  0  0  0  0  0  0  0  0  0
  1  2  1  0  0  0  0
  2  3  1  0  0  0  0
  3  4  1  0  0  0  0
  4  5  1  0  0  0  0
  1  7  1  0  0  0  0
  1  8  1  0  0  0  0
  1  9  1  0  0  0  0
  2 10  1  0  0  0  0
  2 11  1  0  0  0  0
  3 12  1  0  0  0  0
  3 13  1  0  0  0  0
  5 14  1  0  0  0  0
  5 15  1  0  0  0  0
  5 16  1  0  0  0  0
M  END
