 xtb: 6.5.1 (fef0646)
          01242310103D

 17 16  0     0  0            999 V2000
   -1.8854   -0.5829   -0.3086 N   0  0  0  0  0  0  0  0  0  0  0  0
   -1.0644    0.2061    0.6558 C   0  0  0  0  0  0  0  0  0  0  0  0
    0.0535    1.0092   -0.0084 C   0  0  0  0  0  0  0  0  0  0  0  0
    1.1611    0.1623   -0.6485 C   0  0  0  0  0  0  0  0  0  0  0  0
    1.9948   -0.6312    0.3491 C   0  0  0  0  0  0  0  0  0  0  0  0
   -2.6596   -1.0715    0.1654 H   0  0  0  0  0  0  0  0  0  0  0  0
   -1.3272   -1.2986   -0.7949 H   0  0  0  0  0  0  0  0  0  0  0  0
   -2.3037    0.0270   -1.0258 H   0  0  0  0  0  0  0  0  0  0  0  0
   -0.6486   -0.4674    1.4142 H   0  0  0  0  0  0  0  0  0  0  0  0
   -1.7332    0.8827    1.2054 H   0  0  0  0  0  0  0  0  0  0  0  0
    0.5067    1.6890    0.7243 H   0  0  0  0  0  0  0  0  0  0  0  0
   -0.3933    1.6641   -0.7672 H   0  0  0  0  0  0  0  0  0  0  0  0
    1.8264    0.8160   -1.2298 H   0  0  0  0  0  0  0  0  0  0  0  0
    0.7213   -0.5161   -1.3894 H   0  0  0  0  0  0  0  0  0  0  0  0
    2.4601    0.0246    1.0879 H   0  0  0  0  0  0  0  0  0  0  0  0
    2.7987   -1.1852   -0.1425 H   0  0  0  0  0  0  0  0  0  0  0  0
    1.3913   -1.3587    0.8940 H   0  0  0  0  0  0  0  0  0  0  0  0
  1  2  1  0  0  0  0
  2  3  1  0  0  0  0
  3  4  1  0  0  0  0
  4  5  1  0  0  0  0
  1  6  1  0  0  0  0
  1  7  1  0  0  0  0
  1  8  1  0  0  0  0
  2  9  1  0  0  0  0
  2 10  1  0  0  0  0
  3 11  1  0  0  0  0
  3 12  1  0  0  0  0
  4 13  1  0  0  0  0
  4 14  1  0  0  0  0
  5 15  1  0  0  0  0
  5 16  1  0  0  0  0
  5 17  1  0  0  0  0
M  CHG  1   1   1
M  END
