28

N          1.07064        0.04698       -0.24582
C          2.51000       -0.23937       -0.18522
C          2.72491       -1.42426        0.75470
C          3.03650       -0.41514       -1.59285
C          3.12000       -1.66522       -2.21776
C          3.52439       -1.76888       -3.55017
C          3.36883        0.73233       -2.34075
C          3.76620        0.64246       -3.68471
C          3.84201       -0.62776       -4.29715
C          4.22145       -0.72397       -5.64470
C          4.51988        0.42072       -6.38322
C          4.44989        1.67375       -5.78156
C          4.07848        1.78645       -4.44089
Cl         0.19655        1.90515        1.72735
H          0.73058        0.40284        0.69035
H          0.45554       -0.70865       -0.54019
H          0.86911        0.88897       -0.79700
H          2.98668        0.63941        0.26489
H          2.16318       -2.31102        0.44061
H          2.39851       -1.17880        1.77137
H          3.78501       -1.69658        0.80273
H          2.86670       -2.58300       -1.69276
H          3.57929       -2.75477       -4.00841
H          3.30727        1.71731       -1.87488
H          4.28015       -1.69425       -6.13213
H          4.80543        0.33261       -7.42826
H          4.68145        2.56600       -6.35790
H          4.02898        2.77641       -3.99213
