  21

 N         -2.2972556433       -0.2578762535        1.1917479205
 C         -1.6586676741        0.4142834482        0.0079900154
 C         -2.3179670380       -0.0157975829       -1.2974664053
 C         -0.1647956922        0.1878609099       -0.0054866044
 C          0.7196203858        1.2699471831        0.0685693655
 C          2.0961004335        1.0676829830        0.0581514924
 C          2.6099305331       -0.2207882919       -0.0258900570
 C          1.7442147332       -1.3055935349       -0.0985962953
 C          0.3679425994       -1.1020608707       -0.0871692615
 H         -1.8552980806        0.0414836524        2.0727466831
 H         -2.2064391007       -1.2812735261        1.1288772454
 H         -3.3021363251       -0.0389800039        1.2531755008
 H         -1.8230839641        1.4982565435        0.1319541052
 H         -2.2036223118       -1.0871965609       -1.4554242949
 H         -1.8745654866        0.4931983289       -2.1537450806
 H         -3.3864498030        0.2013768364       -1.2940473139
 H          0.3287134095        2.2709736963        0.1341470805
 H          2.7656727476        1.9108493117        0.1167001373
 H          3.6769377961       -0.3781134289       -0.0343135891
 H          2.1412588773       -2.3059128806       -0.1638930527
 H         -0.2966425042       -1.9466599177       -0.1426581698
          21
        -25.72568923
 N         -2.3076033417        0.2068509078       -1.1877482566
 C         -1.6626520730       -0.4189267481        0.0171930524
 C         -2.3154839168        0.0596383054        1.3088208088
 C         -0.1687077893       -0.1934325834        0.0138507678
 C          0.7148412943       -1.2773699093       -0.0363414314
 C          2.0910649263       -1.0747266100       -0.0449507230
 C          2.6054901602        0.2154165417       -0.0042929617
 C          1.7404768874        1.3019771724        0.0444678943
 C          0.3642736091        1.0983347382        0.0525847958
 H         -3.3130984446       -0.0124766195       -1.2348154706
 H         -1.8704172137       -0.1275035381       -2.0586911552
 H         -2.2144083757        1.2314711727       -1.1660274115
 H         -1.8274887539       -1.5067000108       -0.0641193704
 H         -3.3835653908       -0.1581331704        1.3195444200
 H         -2.2017765818        1.1362261435        1.4251793735
 H         -1.8667174717       -0.4150877858        2.1820574561
 H          0.3235383316       -2.2798610973       -0.0697853420
 H          2.7601634170       -1.9194470524       -0.0840913890
 H          3.6724534262        0.3729692431       -0.0106678376
 H          2.1375741818        2.3039334428        0.0755696897
 H         -0.2991937109        1.9450532511        0.0882504651
