  21

 N          1.1572917846       -0.2858610160       -0.3573060728
 C          2.5720773571        0.0783692106        0.0564115649
 C          3.5079620380       -0.2581047087       -1.0918536265
 C          2.8992956225       -0.6630896571        1.3284880973
 C          3.2598338805        0.0395627639        2.4708565857
 C          3.5726682437       -0.6384509769        3.6366653903
 C          3.5187721126       -2.0214910588        3.6708830694
 C          3.1563577232       -2.7281648813        2.5354625508
 C          2.8489967620       -2.0536450088        1.3678269672
 H          0.4814824378        0.0138442904        0.3551958720
 H          1.1036233481       -1.3102132120       -0.4443528910
 H          0.9159427195        0.1410999155       -1.2600583368
 H          2.5850439799        1.1557074939        0.2424574959
 H          3.4907823882       -1.3200035490       -1.3217876101
 H          4.5246330774       -0.0007811365       -0.8086926990
 H          3.2580256280        0.3080332090       -1.9860307145
 H          3.3075855273        1.1179586258        2.4463891425
 H          3.8575110397       -0.0843528451        4.5166381722
 H          3.7620598330       -2.5497315055        4.5787203529
 H          3.1176943756       -3.8057337559        2.5566595912
 H          2.5887301212       -2.6260021974        0.4868370987
