 xtb: 6.5.1 (fef0646)
          01242310043D

 34 34  0     0  0            999 V2000
   -4.1921    0.9318   -0.2941 N   0  0  0  0  0  0  0  0  0  0  0  0
   -3.8661    1.1060    1.1498 C   0  0  0  0  0  0  0  0  0  0  0  0
   -2.6284    0.3090    1.5539 C   0  0  0  0  0  0  0  0  0  0  0  0
   -1.4306    0.6336    0.7106 C   0  0  0  0  0  0  0  0  0  0  0  0
   -0.6198    1.7180    1.0165 C   0  0  0  0  0  0  0  0  0  0  0  0
    0.4591    2.0365    0.2196 C   0  0  0  0  0  0  0  0  0  0  0  0
   -1.1453   -0.1142   -0.4240 C   0  0  0  0  0  0  0  0  0  0  0  0
   -0.0683    0.2006   -1.2234 C   0  0  0  0  0  0  0  0  0  0  0  0
    0.7490    1.2805   -0.9109 C   0  0  0  0  0  0  0  0  0  0  0  0
    1.8823    1.5597   -1.6812 N   0  0  0  0  0  0  0  0  0  0  0  0
    2.9862    1.0467   -1.4412 N   0  0  0  0  0  0  0  0  0  0  0  0
    3.1778    0.1522   -0.3824 C   0  0  0  0  0  0  0  0  0  0  0  0
    3.5117    0.6200    0.8850 C   0  0  0  0  0  0  0  0  0  0  0  0
    3.6366   -0.2557    1.9425 C   0  0  0  0  0  0  0  0  0  0  0  0
    3.4285   -1.6083    1.7498 C   0  0  0  0  0  0  0  0  0  0  0  0
    3.0949   -2.0842    0.4962 C   0  0  0  0  0  0  0  0  0  0  0  0
    2.9694   -1.2112   -0.5634 C   0  0  0  0  0  0  0  0  0  0  0  0
   -3.7691   -2.4538   -1.0452 Cl  0  0  0  0  0  0  0  0  0  0  0  0
   -5.0928    1.3673   -0.5532 H   0  0  0  0  0  0  0  0  0  0  0  0
   -4.2368   -0.0746   -0.5377 H   0  0  0  0  0  0  0  0  0  0  0  0
   -3.4594    1.3491   -0.8878 H   0  0  0  0  0  0  0  0  0  0  0  0
   -4.7264    0.8084    1.7613 H   0  0  0  0  0  0  0  0  0  0  0  0
   -3.7073    2.1716    1.3577 H   0  0  0  0  0  0  0  0  0  0  0  0
   -2.8391   -0.7631    1.4716 H   0  0  0  0  0  0  0  0  0  0  0  0
   -2.3859    0.4789    2.6094 H   0  0  0  0  0  0  0  0  0  0  0  0
   -0.8425    2.3115    1.8880 H   0  0  0  0  0  0  0  0  0  0  0  0
    1.0982    2.8682    0.4635 H   0  0  0  0  0  0  0  0  0  0  0  0
   -1.7852   -0.9429   -0.6801 H   0  0  0  0  0  0  0  0  0  0  0  0
    0.1612   -0.3873   -2.0963 H   0  0  0  0  0  0  0  0  0  0  0  0
    3.6605    1.6776    1.0235 H   0  0  0  0  0  0  0  0  0  0  0  0
    3.8943    0.1162    2.9217 H   0  0  0  0  0  0  0  0  0  0  0  0
    3.5255   -2.2922    2.5782 H   0  0  0  0  0  0  0  0  0  0  0  0
    2.9297   -3.1396    0.3465 H   0  0  0  0  0  0  0  0  0  0  0  0
    2.6997   -1.5677   -1.5433 H   0  0  0  0  0  0  0  0  0  0  0  0
  1  2  1  0  0  0  0
  2  3  1  0  0  0  0
  3  4  1  0  0  0  0
  4  5  4  0  0  0  0
  5  6  4  0  0  0  0
  4  7  4  0  0  0  0
  7  8  4  0  0  0  0
  6  9  4  0  0  0  0
  8  9  4  0  0  0  0
  9 10  1  0  0  0  0
 10 11  2  0  0  0  0
 11 12  1  0  0  0  0
 12 13  4  0  0  0  0
 13 14  4  0  0  0  0
 14 15  4  0  0  0  0
 15 16  4  0  0  0  0
 12 17  4  0  0  0  0
 16 17  4  0  0  0  0
  1 19  1  0  0  0  0
  1 20  1  0  0  0  0
  1 21  1  0  0  0  0
  2 22  1  0  0  0  0
  2 23  1  0  0  0  0
  3 24  1  0  0  0  0
  3 25  1  0  0  0  0
  5 26  1  0  0  0  0
  6 27  1  0  0  0  0
  7 28  1  0  0  0  0
  8 29  1  0  0  0  0
 13 30  1  0  0  0  0
 14 31  1  0  0  0  0
 15 32  1  0  0  0  0
 16 33  1  0  0  0  0
 17 34  1  0  0  0  0
M  END
