 xtb: 6.5.1 (fef0646)
          01242316583D

 25 24  0     0  0            999 V2000
   -1.5089   -1.8258    0.1995 N   0  0  0  0  0  0  0  0  0  0  0  0
   -0.0171   -1.7917    0.2209 C   0  0  0  0  0  0  0  0  0  0  0  0
    0.5521   -0.7524    1.1980 C   0  0  0  0  0  0  0  0  0  0  0  0
    0.1507    0.7004    0.8335 C   0  0  0  0  0  0  0  0  0  0  0  0
    0.8679    1.2036   -0.4311 C   0  0  0  0  0  0  0  0  0  0  0  0
    2.3944    1.0939   -0.2812 C   0  0  0  0  0  0  0  0  0  0  0  0
    2.8156   -0.3466    0.0552 C   0  0  0  0  0  0  0  0  0  0  0  0
    2.0962   -0.8610    1.3154 C   0  0  0  0  0  0  0  0  0  0  0  0
   -2.7669    1.1543   -1.2162 Cl  0  0  0  0  0  0  0  0  0  0  0  0
   -1.8960   -0.9453   -0.1723 H   0  0  0  0  0  0  0  0  0  0  0  0
   -1.8877   -1.9553    1.1473 H   0  0  0  0  0  0  0  0  0  0  0  0
   -1.8676   -2.5921   -0.3915 H   0  0  0  0  0  0  0  0  0  0  0  0
    0.3613   -1.5956   -0.7872 H   0  0  0  0  0  0  0  0  0  0  0  0
    0.3661   -2.7840    0.4857 H   0  0  0  0  0  0  0  0  0  0  0  0
    0.1201   -0.9791    2.1882 H   0  0  0  0  0  0  0  0  0  0  0  0
    0.3948    1.3651    1.6714 H   0  0  0  0  0  0  0  0  0  0  0  0
   -0.9368    0.7750    0.7157 H   0  0  0  0  0  0  0  0  0  0  0  0
    0.5739    2.2381   -0.6572 H   0  0  0  0  0  0  0  0  0  0  0  0
    0.5418    0.6173   -1.2984 H   0  0  0  0  0  0  0  0  0  0  0  0
    2.7299    1.7662    0.5182 H   0  0  0  0  0  0  0  0  0  0  0  0
    2.9014    1.4462   -1.1904 H   0  0  0  0  0  0  0  0  0  0  0  0
    3.9056   -0.4103    0.1804 H   0  0  0  0  0  0  0  0  0  0  0  0
    2.5869   -1.0019   -0.7937 H   0  0  0  0  0  0  0  0  0  0  0  0
    2.4390   -0.2896    2.1864 H   0  0  0  0  0  0  0  0  0  0  0  0
    2.3793   -1.9019    1.5178 H   0  0  0  0  0  0  0  0  0  0  0  0
  1  2  1  0  0  0  0
  2  3  1  0  0  0  0
  3  4  1  0  0  0  0
  4  5  1  0  0  0  0
  5  6  1  0  0  0  0
  6  7  1  0  0  0  0
  3  8  1  0  0  0  0
  7  8  1  0  0  0  0
  1 10  1  0  0  0  0
  1 11  1  0  0  0  0
  1 12  1  0  0  0  0
  2 13  1  0  0  0  0
  2 14  1  0  0  0  0
  3 15  1  0  0  0  0
  4 16  1  0  0  0  0
  4 17  1  0  0  0  0
  5 18  1  0  0  0  0
  5 19  1  0  0  0  0
  6 20  1  0  0  0  0
  6 21  1  0  0  0  0
  7 22  1  0  0  0  0
  7 23  1  0  0  0  0
  8 24  1  0  0  0  0
  8 25  1  0  0  0  0
M  END
