 xtb: 6.5.1 (fef0646)
          01242314573D

 49 53  0     0  0            999 V2000
    3.4791   -1.1169   -0.8026 N   0  0  0  0  0  0  0  0  0  0  0  0
    2.7478   -0.2915    0.1827 C   0  0  0  0  0  0  0  0  0  0  0  0
    3.5240   -0.2096    1.4999 C   0  0  0  0  0  0  0  0  0  0  0  0
    4.7575    0.6209    1.3826 C   0  0  0  0  0  0  0  0  0  0  0  0
    5.0045    1.8518    1.9111 C   0  0  0  0  0  0  0  0  0  0  0  0
    6.2737    2.3625    1.5799 C   0  0  0  0  0  0  0  0  0  0  0  0
    7.0156    1.5236    0.7893 C   0  0  0  0  0  0  0  0  0  0  0  0
    8.3172    1.7182    0.2472 C   0  0  0  0  0  0  0  0  0  0  0  0
    9.0653    0.8473   -0.5054 C   0  0  0  0  0  0  0  0  0  0  0  0
   10.3126    1.3604   -0.9002 C   0  0  0  0  0  0  0  0  0  0  0  0
   11.2832    0.5357   -1.6794 C   0  0  0  0  0  0  0  0  0  0  0  0
   10.5182    2.6498   -0.4437 C   0  0  0  0  0  0  0  0  0  0  0  0
   11.6208    3.5508   -0.6482 C   0  0  0  0  0  0  0  0  0  0  0  0
   12.4933    3.4889   -1.7227 C   0  0  0  0  0  0  0  0  0  0  0  0
   13.5424    4.3929   -1.9055 C   0  0  0  0  0  0  0  0  0  0  0  0
   13.7985    5.4434   -1.0408 C   0  0  0  0  0  0  0  0  0  0  0  0
   14.8680    6.3934   -1.2256 C   0  0  0  0  0  0  0  0  0  0  0  0
   15.4632    6.8395   -2.3856 C   0  0  0  0  0  0  0  0  0  0  0  0
   15.0715    6.4697   -3.7787 C   0  0  0  0  0  0  0  0  0  0  0  0
   16.4967    7.7703   -2.1255 C   0  0  0  0  0  0  0  0  0  0  0  0
   16.6795    8.0213   -0.8046 C   0  0  0  0  0  0  0  0  0  0  0  0
   15.5764    7.1489    0.1790 S   0  0  0  0  0  0  0  0  0  0  0  0
   12.9351    5.5390    0.0804 C   0  0  0  0  0  0  0  0  0  0  0  0
   12.9770    6.4538    1.0504 N   0  0  0  0  0  0  0  0  0  0  0  0
   11.7891    6.1717    2.0946 S   0  0  0  0  0  0  0  0  0  0  0  0
   11.1542    4.8798    1.3705 N   0  0  0  0  0  0  0  0  0  0  0  0
   11.8538    4.6117    0.2670 C   0  0  0  0  0  0  0  0  0  0  0  0
    9.1733    3.2115    0.5132 S   0  0  0  0  0  0  0  0  0  0  0  0
    6.1365    0.0701    0.4641 S   0  0  0  0  0  0  0  0  0  0  0  0
    2.9861   -1.1406   -1.7011 H   0  0  0  0  0  0  0  0  0  0  0  0
    3.5882   -2.0756   -0.4537 H   0  0  0  0  0  0  0  0  0  0  0  0
    4.4238   -0.7296   -0.9448 H   0  0  0  0  0  0  0  0  0  0  0  0
    1.7716   -0.7359    0.3714 H   0  0  0  0  0  0  0  0  0  0  0  0
    2.6076    0.7111   -0.2198 H   0  0  0  0  0  0  0  0  0  0  0  0
    3.7894   -1.2130    1.8342 H   0  0  0  0  0  0  0  0  0  0  0  0
    2.8846    0.2400    2.2584 H   0  0  0  0  0  0  0  0  0  0  0  0
    4.3033    2.3876    2.5250 H   0  0  0  0  0  0  0  0  0  0  0  0
    6.6510    3.3165    1.9044 H   0  0  0  0  0  0  0  0  0  0  0  0
    8.7337   -0.1425   -0.7676 H   0  0  0  0  0  0  0  0  0  0  0  0
   11.0759   -0.5190   -1.5177 H   0  0  0  0  0  0  0  0  0  0  0  0
   12.3058    0.7443   -1.3732 H   0  0  0  0  0  0  0  0  0  0  0  0
   11.1912    0.7373   -2.7463 H   0  0  0  0  0  0  0  0  0  0  0  0
   12.3532    2.7303   -2.4727 H   0  0  0  0  0  0  0  0  0  0  0  0
   14.1897    4.2460   -2.7530 H   0  0  0  0  0  0  0  0  0  0  0  0
   14.0036    6.2768   -3.8452 H   0  0  0  0  0  0  0  0  0  0  0  0
   15.6097    5.5804   -4.1061 H   0  0  0  0  0  0  0  0  0  0  0  0
   15.3280    7.2821   -4.4541 H   0  0  0  0  0  0  0  0  0  0  0  0
   17.0770    8.2320   -2.9040 H   0  0  0  0  0  0  0  0  0  0  0  0
   17.3898    8.6759   -0.3413 H   0  0  0  0  0  0  0  0  0  0  0  0
  1  2  1  0  0  0  0
  2  3  1  0  0  0  0
  3  4  1  0  0  0  0
  4  5  2  0  0  0  0
  5  6  4  0  0  0  0
  6  7  2  0  0  0  0
  7  8  1  0  0  0  0
  8  9  4  0  0  0  0
  9 10  4  0  0  0  0
 10 11  1  0  0  0  0
 10 12  4  0  0  0  0
 12 13  1  0  0  0  0
 13 14  4  0  0  0  0
 14 15  4  0  0  0  0
 15 16  4  0  0  0  0
 16 17  1  0  0  0  0
 17 18  4  0  0  0  0
 18 19  1  0  0  0  0
 18 20  4  0  0  0  0
 20 21  2  0  0  0  0
 17 22  1  0  0  0  0
 21 22  1  0  0  0  0
 16 23  1  0  0  0  0
 23 24  4  0  0  0  0
 24 25  2  0  0  0  0
 25 26  2  0  0  0  0
 13 27  1  0  0  0  0
 23 27  1  0  0  0  0
 26 27  4  0  0  0  0
  8 28  1  0  0  0  0
 12 28  1  0  0  0  0
  4 29  1  0  0  0  0
  7 29  1  0  0  0  0
  1 30  1  0  0  0  0
  1 31  1  0  0  0  0
  1 32  1  0  0  0  0
  2 33  1  0  0  0  0
  2 34  1  0  0  0  0
  3 35  1  0  0  0  0
  3 36  1  0  0  0  0
  5 37  1  0  0  0  0
  6 38  1  0  0  0  0
  9 39  1  0  0  0  0
 11 40  1  0  0  0  0
 11 41  1  0  0  0  0
 11 42  1  0  0  0  0
 14 43  1  0  0  0  0
 15 44  1  0  0  0  0
 19 45  1  0  0  0  0
 19 46  1  0  0  0  0
 19 47  1  0  0  0  0
 20 48  1  0  0  0  0
 21 49  1  0  0  0  0
M  CHG  1   1   1
M  END
