36

N          1.00979       -0.38542        1.16030
C          2.46692       -0.43077        1.05531
C          3.06213        0.97576        0.95389
C          4.57511        0.99895        0.88580
C          5.30219       -0.01794        0.25549
C          6.69361        0.03328        0.18616
C          7.40330        1.12037        0.70373
C          8.87369        1.15913        0.67459
C          9.60902        0.57029       -0.28608
C         11.07621        0.47157       -0.29082
C         11.82664        0.41583        0.88950
C         13.20856        0.22815        0.84625
C         13.85635        0.08220       -0.37671
C         13.12162        0.12266       -1.56017
C         11.73928        0.31284       -1.51762
C          6.68402        2.14590        1.32666
C          5.28451        2.08997        1.40940
Cl        -0.86569        0.12900       -0.90681
H          0.55402       -1.30507        1.16885
H          0.55466        0.00188        0.28041
H          0.60065        0.19056        1.90005
H          2.68593       -1.03784        0.17200
H          2.83216       -0.95495        1.94447
H          2.73814        1.55308        1.83059
H          2.67196        1.48904        0.06721
H          4.81755       -0.87576       -0.20348
H          7.21555       -0.80149       -0.27833
H          9.34810        1.67950        1.50055
H          9.12516        0.09588       -1.13630
H         11.34367        0.49139        1.86094
H         13.77794        0.18127        1.77295
H         14.93110       -0.07418       -0.40892
H         13.62276       -0.00333       -2.51622
H         11.18244        0.32744       -2.45182
H          7.20403        3.00535        1.74654
H          4.75844        2.91614        1.88654
