 xtb: 6.5.1 (fef0646)
          01232313533D

 36 36  0     0  0            999 V2000
    1.0156   -0.2108    1.3971 N   0  0  0  0  0  0  0  0  0  0  0  0
    2.4756   -0.2014    1.4698 C   0  0  0  0  0  0  0  0  0  0  0  0
    3.0255    1.0496    0.7778 C   0  0  0  0  0  0  0  0  0  0  0  0
    4.5255    1.0060    0.7378 C   0  0  0  0  0  0  0  0  0  0  0  0
    5.1846    0.3541   -0.2982 C   0  0  0  0  0  0  0  0  0  0  0  0
    6.5617    0.2815   -0.3311 C   0  0  0  0  0  0  0  0  0  0  0  0
    7.3359    0.8586    0.6791 C   0  0  0  0  0  0  0  0  0  0  0  0
    8.7859    0.8246    0.6975 C   0  0  0  0  0  0  0  0  0  0  0  0
    9.5841    0.3917   -0.2889 C   0  0  0  0  0  0  0  0  0  0  0  0
   11.0351    0.3710   -0.2788 C   0  0  0  0  0  0  0  0  0  0  0  0
   11.8025    0.6816    0.8469 C   0  0  0  0  0  0  0  0  0  0  0  0
   13.1819    0.6489    0.7938 C   0  0  0  0  0  0  0  0  0  0  0  0
   13.8321    0.3060   -0.3809 C   0  0  0  0  0  0  0  0  0  0  0  0
   13.0876   -0.0090   -1.5056 C   0  0  0  0  0  0  0  0  0  0  0  0
   11.7083    0.0208   -1.4535 C   0  0  0  0  0  0  0  0  0  0  0  0
    6.6647    1.5022    1.7230 C   0  0  0  0  0  0  0  0  0  0  0  0
    5.2872    1.5758    1.7504 C   0  0  0  0  0  0  0  0  0  0  0  0
    0.2093   -0.1891   -1.4241 Cl  0  0  0  0  0  0  0  0  0  0  0  0
    0.6299   -1.0409    1.8332 H   0  0  0  0  0  0  0  0  0  0  0  0
    0.5868   -0.1989   -0.1033 H   0  0  0  0  0  0  0  0  0  0  0  0
    0.6257    0.6092    1.8507 H   0  0  0  0  0  0  0  0  0  0  0  0
    2.8383   -1.0916    0.9503 H   0  0  0  0  0  0  0  0  0  0  0  0
    2.8427   -0.2378    2.5057 H   0  0  0  0  0  0  0  0  0  0  0  0
    2.6900    1.9370    1.3190 H   0  0  0  0  0  0  0  0  0  0  0  0
    2.6215    1.0873   -0.2340 H   0  0  0  0  0  0  0  0  0  0  0  0
    4.6048   -0.0955   -1.0920 H   0  0  0  0  0  0  0  0  0  0  0  0
    7.0401   -0.2347   -1.1494 H   0  0  0  0  0  0  0  0  0  0  0  0
    9.2275    1.2151    1.6052 H   0  0  0  0  0  0  0  0  0  0  0  0
    9.1414    0.0325   -1.2089 H   0  0  0  0  0  0  0  0  0  0  0  0
   11.3180    0.9446    1.7746 H   0  0  0  0  0  0  0  0  0  0  0  0
   13.7574    0.8916    1.6757 H   0  0  0  0  0  0  0  0  0  0  0  0
   14.9111    0.2826   -0.4181 H   0  0  0  0  0  0  0  0  0  0  0  0
   13.5857   -0.2796   -2.4255 H   0  0  0  0  0  0  0  0  0  0  0  0
   11.1344   -0.2260   -2.3361 H   0  0  0  0  0  0  0  0  0  0  0  0
    7.2384    1.9564    2.5192 H   0  0  0  0  0  0  0  0  0  0  0  0
    4.7949    2.0870    2.5664 H   0  0  0  0  0  0  0  0  0  0  0  0
  1  2  1  0  0  0  0
  2  3  1  0  0  0  0
  3  4  1  0  0  0  0
  4  5  4  0  0  0  0
  5  6  4  0  0  0  0
  6  7  4  0  0  0  0
  7  8  1  0  0  0  0
  8  9  2  0  0  0  0
  9 10  1  0  0  0  0
 10 11  4  0  0  0  0
 11 12  4  0  0  0  0
 12 13  4  0  0  0  0
 13 14  4  0  0  0  0
 10 15  4  0  0  0  0
 14 15  4  0  0  0  0
  7 16  4  0  0  0  0
  4 17  4  0  0  0  0
 16 17  4  0  0  0  0
  1 19  1  0  0  0  0
 18 20  1  0  0  0  0
  1 21  1  0  0  0  0
  2 22  1  0  0  0  0
  2 23  1  0  0  0  0
  3 24  1  0  0  0  0
  3 25  1  0  0  0  0
  5 26  1  0  0  0  0
  6 27  1  0  0  0  0
  8 28  1  0  0  0  0
  9 29  1  0  0  0  0
 11 30  1  0  0  0  0
 12 31  1  0  0  0  0
 13 32  1  0  0  0  0
 14 33  1  0  0  0  0
 15 34  1  0  0  0  0
 16 35  1  0  0  0  0
 17 36  1  0  0  0  0
M  END
