28
 xtb: 6.5.1 (fef0646)
N           -3.28710257653559       -0.80259245063058       -0.20227056228225
C           -2.11344263586947       -1.65301057421063       -0.58005640402846
C           -2.40092907144880       -2.43627081739712       -1.85652928742171
C           -0.85856071237710       -0.81966638416626       -0.69611757152585
C           -0.77392668231385        0.21251616283245       -1.64955611685019
C            0.34486561112564        0.98256415010080       -1.75787100565375
C            0.20365342517854       -1.04274899262796        0.13867391723628
C            1.38131989586164       -0.26573357639412        0.05507223971772
C            1.45486105844298        0.76463177049516       -0.91150932872587
C            2.63429224932127        1.53963523109168       -0.99815718497101
C            3.68524850063368        1.29895025525751       -0.16470645725412
C            3.61181720597145        0.27953512751761        0.79477628692053
C            2.48929635806001       -0.48506780120076        0.90576787240882
Cl          -1.73668760852323        1.15081834906247        2.68665667931271
H           -4.10012525304362       -1.33329759912575        0.08263865034190
H           -3.50570057692270       -0.11471523408532       -0.88319987493811
H           -3.00708860371377       -0.22222755176345        0.70002376142559
H           -1.93891351679583       -2.36833316219084        0.25680073256513
H           -1.59719413922387       -3.04971421550829       -2.12054836662638
H           -2.62010893167460       -1.72244927463762       -2.65243965626800
H           -3.31321784498010       -3.03101980290716       -1.70650300155978
H           -1.61522316961505        0.40390156968559       -2.27518156737878
H            0.39601253218965        1.77621677138746       -2.48029240637109
H            0.16398142453905       -1.82275402502477        0.88217100733379
H            2.69515699714717        2.32831396097151       -1.73335243503553
H            4.59197322095266        1.89657616371095       -0.24909885827199
H            4.47159825241194        0.09823154534357        1.43415787141726
H            2.45539782344972       -1.27307970311292        1.63490623805053
