 xtb: 6.5.1 (fef0646)
          01242314553D

 15 15  0     0  0            999 V2000
    3.3338   -0.9319   -0.8858 N   0  0  0  0  0  0  0  0  0  0  0  0
    2.5175   -0.0374   -0.0303 C   0  0  0  0  0  0  0  0  0  0  0  0
    3.0040   -0.0605    1.3805 C   0  0  0  0  0  0  0  0  0  0  0  0
    3.2002    0.9767    2.2361 C   0  0  0  0  0  0  0  0  0  0  0  0
    3.6343    0.5573    3.5161 C   0  0  0  0  0  0  0  0  0  0  0  0
    3.7689   -0.7886    3.6146 C   0  0  0  0  0  0  0  0  0  0  0  0
    3.3523   -1.5827    2.1597 S   0  0  0  0  0  0  0  0  0  0  0  0
    2.9611   -0.9592   -1.8418 H   0  0  0  0  0  0  0  0  0  0  0  0
    3.3211   -1.8811   -0.4915 H   0  0  0  0  0  0  0  0  0  0  0  0
    4.3095   -0.6134   -0.9128 H   0  0  0  0  0  0  0  0  0  0  0  0
    1.4792   -0.3754   -0.0624 H   0  0  0  0  0  0  0  0  0  0  0  0
    2.5616    0.9849   -0.4060 H   0  0  0  0  0  0  0  0  0  0  0  0
    3.0431    2.0082    1.9808 H   0  0  0  0  0  0  0  0  0  0  0  0
    3.8447    1.2299    4.3282 H   0  0  0  0  0  0  0  0  0  0  0  0
    4.0895   -1.3720    4.4555 H   0  0  0  0  0  0  0  0  0  0  0  0
  1  2  1  0  0  0  0
  2  3  1  0  0  0  0
  3  4  2  0  0  0  0
  4  5  4  0  0  0  0
  5  6  2  0  0  0  0
  3  7  1  0  0  0  0
  6  7  1  0  0  0  0
  1  8  1  0  0  0  0
  1  9  1  0  0  0  0
  1 10  1  0  0  0  0
  2 11  1  0  0  0  0
  2 12  1  0  0  0  0
  4 13  1  0  0  0  0
  5 14  1  0  0  0  0
  6 15  1  0  0  0  0
M  CHG  1   1   1
M  END
