 xtb: 6.5.1 (fef0646)
          01232321063D

 28 28  0     0  0            999 V2000
    0.9858    0.0479    0.2266 N   0  0  0  0  0  0  0  0  0  0  0  0
    2.3940    0.2600   -0.1458 C   0  0  0  0  0  0  0  0  0  0  0  0
    3.2793   -0.1314    1.0370 C   0  0  0  0  0  0  0  0  0  0  0  0
    2.7351   -0.5562   -1.3691 C   0  0  0  0  0  0  0  0  0  0  0  0
    2.4570   -1.9378   -1.3959 C   0  0  0  0  0  0  0  0  0  0  0  0
    2.7724   -2.6873   -2.4926 C   0  0  0  0  0  0  0  0  0  0  0  0
    3.3257    0.0327   -2.4562 C   0  0  0  0  0  0  0  0  0  0  0  0
    3.6640   -0.7143   -3.6032 C   0  0  0  0  0  0  0  0  0  0  0  0
    3.3820   -2.1046   -3.6235 C   0  0  0  0  0  0  0  0  0  0  0  0
    3.7169   -2.8526   -4.7708 C   0  0  0  0  0  0  0  0  0  0  0  0
    4.3013   -2.2511   -5.8501 C   0  0  0  0  0  0  0  0  0  0  0  0
    4.5780   -0.8750   -5.8309 C   0  0  0  0  0  0  0  0  0  0  0  0
    4.2677   -0.1233   -4.7325 C   0  0  0  0  0  0  0  0  0  0  0  0
    0.3671   -2.4162    1.6654 Cl  0  0  0  0  0  0  0  0  0  0  0  0
    0.6868    0.7441    0.9010 H   0  0  0  0  0  0  0  0  0  0  0  0
    0.7060   -1.2647    0.9582 H   0  0  0  0  0  0  0  0  0  0  0  0
    0.3835    0.0936   -0.5883 H   0  0  0  0  0  0  0  0  0  0  0  0
    2.5722    1.3221   -0.3820 H   0  0  0  0  0  0  0  0  0  0  0  0
    3.1179   -1.1735    1.2932 H   0  0  0  0  0  0  0  0  0  0  0  0
    3.0434    0.4800    1.9046 H   0  0  0  0  0  0  0  0  0  0  0  0
    4.3253    0.0122    0.7807 H   0  0  0  0  0  0  0  0  0  0  0  0
    1.9871   -2.3958   -0.5408 H   0  0  0  0  0  0  0  0  0  0  0  0
    2.5566   -3.7458   -2.5081 H   0  0  0  0  0  0  0  0  0  0  0  0
    3.5462    1.0921   -2.4507 H   0  0  0  0  0  0  0  0  0  0  0  0
    3.5019   -3.9117   -4.7801 H   0  0  0  0  0  0  0  0  0  0  0  0
    4.5549   -2.8296   -6.7264 H   0  0  0  0  0  0  0  0  0  0  0  0
    5.0386   -0.4158   -6.6934 H   0  0  0  0  0  0  0  0  0  0  0  0
    4.4797    0.9365   -4.7141 H   0  0  0  0  0  0  0  0  0  0  0  0
  1  2  1  0  0  0  0
  2  3  1  0  0  0  0
  2  4  1  0  0  0  0
  4  5  4  0  0  0  0
  5  6  2  0  0  0  0
  4  7  2  0  0  0  0
  7  8  4  0  0  0  0
  6  9  4  0  0  0  0
  8  9  4  0  0  0  0
  9 10  4  0  0  0  0
 10 11  2  0  0  0  0
 11 12  4  0  0  0  0
  8 13  4  0  0  0  0
 12 13  2  0  0  0  0
  1 15  1  0  0  0  0
 14 16  1  0  0  0  0
  1 17  1  0  0  0  0
  2 18  1  0  0  0  0
  3 19  1  0  0  0  0
  3 20  1  0  0  0  0
  3 21  1  0  0  0  0
  5 22  1  0  0  0  0
  6 23  1  0  0  0  0
  7 24  1  0  0  0  0
 10 25  1  0  0  0  0
 11 26  1  0  0  0  0
 12 27  1  0  0  0  0
 13 28  1  0  0  0  0
M  END
