25
 xtb: 6.5.1 (fef0646)
N           -1.15758621367151       -0.46985285071758       -0.64283080093428
C           -1.22342355186077       -1.74539520697068        0.12572143206488
C            0.06939645121122       -2.56069160083689        0.07028510563351
C            1.19438126172439       -2.02031768947138        0.96532746609233
C            1.68213886479698       -0.65876356817819        0.56279704343940
C            1.30653701374457        0.47174513721881        1.28067210608325
C            1.67528162592766        1.73244184723530        0.85294831074675
C            2.43326302741021        1.87824618996176       -0.29309865996732
C            2.82352389692941        0.76260588304886       -1.00872612080138
C            2.44828313460622       -0.49752424050967       -0.58384781227706
Cl          -3.92320972664063        1.34107464232318       -0.42355237435082
H           -0.93139867678319       -0.69070726549037       -1.66443613939927
H           -0.34254170780071        0.08268093406956       -0.32129908587510
H           -1.98957007186418        0.07066349966485       -0.60975777048522
H           -2.04493550163106       -2.35545258693318       -0.27215141043253
H           -1.47238015198656       -1.53240979722359        1.15732099211766
H            0.44037345602711       -2.63387946285237       -0.95100745244483
H           -0.12946415295831       -3.61530723836905        0.37428067335611
H            2.05663661061126       -2.70351699959866        0.98593073229806
H            0.85029716313706       -1.98081071872592        2.01651940962933
H            0.76605462352740        0.35457312591763        2.21174020047432
H            1.43262606765630        2.59926396142857        1.45600161330762
H            2.72264351559740        2.86418736137174       -0.62240229387175
H            3.35511508750574        0.88202579659640       -1.93555638812842
H            2.67748924368423       -1.36118031807437       -1.17969850763515
