 xtb: 6.5.1 (fef0646)
          01242310113D

 41 40  0     0  0            999 V2000
   -5.1749   -1.4068    0.6712 N   0  0  0  0  0  0  0  0  0  0  0  0
   -4.0683   -1.8613   -0.2178 C   0  0  0  0  0  0  0  0  0  0  0  0
   -3.7542   -0.8678   -1.3318 C   0  0  0  0  0  0  0  0  0  0  0  0
   -3.2736    0.4986   -0.8378 C   0  0  0  0  0  0  0  0  0  0  0  0
   -1.9472    0.4521   -0.0767 C   0  0  0  0  0  0  0  0  0  0  0  0
   -1.4524    1.8378    0.3414 C   0  0  0  0  0  0  0  0  0  0  0  0
   -0.1576    1.8152    1.1592 C   0  0  0  0  0  0  0  0  0  0  0  0
    1.0656    1.3386    0.3734 C   0  0  0  0  0  0  0  0  0  0  0  0
    2.3586    1.4057    1.1883 C   0  0  0  0  0  0  0  0  0  0  0  0
    3.6098    0.9950    0.4058 C   0  0  0  0  0  0  0  0  0  0  0  0
    3.6419   -0.4848    0.0203 C   0  0  0  0  0  0  0  0  0  0  0  0
    4.9328   -0.8904   -0.6943 C   0  0  0  0  0  0  0  0  0  0  0  0
    4.9691   -2.3644   -1.0664 C   0  0  0  0  0  0  0  0  0  0  0  0
   -4.9289   -0.5417    1.1748 H   0  0  0  0  0  0  0  0  0  0  0  0
   -5.4131   -2.1173    1.3805 H   0  0  0  0  0  0  0  0  0  0  0  0
   -6.0297   -1.2157    0.1274 H   0  0  0  0  0  0  0  0  0  0  0  0
   -4.3380   -2.8342   -0.6489 H   0  0  0  0  0  0  0  0  0  0  0  0
   -3.1722   -2.0511    0.3837 H   0  0  0  0  0  0  0  0  0  0  0  0
   -4.6510   -0.7398   -1.9507 H   0  0  0  0  0  0  0  0  0  0  0  0
   -2.9979   -1.2913   -2.0042 H   0  0  0  0  0  0  0  0  0  0  0  0
   -4.0420    0.9557   -0.2046 H   0  0  0  0  0  0  0  0  0  0  0  0
   -3.1685    1.1830   -1.6890 H   0  0  0  0  0  0  0  0  0  0  0  0
   -1.1912   -0.0429   -0.6960 H   0  0  0  0  0  0  0  0  0  0  0  0
   -2.0492   -0.1791    0.8129 H   0  0  0  0  0  0  0  0  0  0  0  0
   -2.2439    2.3379    0.9134 H   0  0  0  0  0  0  0  0  0  0  0  0
   -1.3099    2.4587   -0.5505 H   0  0  0  0  0  0  0  0  0  0  0  0
   -0.2934    1.1808    2.0427 H   0  0  0  0  0  0  0  0  0  0  0  0
    0.0464    2.8174    1.5564 H   0  0  0  0  0  0  0  0  0  0  0  0
    1.1747    1.9427   -0.5348 H   0  0  0  0  0  0  0  0  0  0  0  0
    0.9030    0.3150    0.0202 H   0  0  0  0  0  0  0  0  0  0  0  0
    2.2613    0.7749    2.0794 H   0  0  0  0  0  0  0  0  0  0  0  0
    2.4811    2.4258    1.5732 H   0  0  0  0  0  0  0  0  0  0  0  0
    4.5069    1.2262    0.9936 H   0  0  0  0  0  0  0  0  0  0  0  0
    3.6947    1.6098   -0.4977 H   0  0  0  0  0  0  0  0  0  0  0  0
    2.7835   -0.7246   -0.6168 H   0  0  0  0  0  0  0  0  0  0  0  0
    3.5129   -1.0999    0.9185 H   0  0  0  0  0  0  0  0  0  0  0  0
    5.7918   -0.6438   -0.0575 H   0  0  0  0  0  0  0  0  0  0  0  0
    5.0591   -0.2726   -1.5923 H   0  0  0  0  0  0  0  0  0  0  0  0
    4.8833   -2.9977   -0.1817 H   0  0  0  0  0  0  0  0  0  0  0  0
    5.8971   -2.6357   -1.5741 H   0  0  0  0  0  0  0  0  0  0  0  0
    4.1439   -2.6250   -1.7313 H   0  0  0  0  0  0  0  0  0  0  0  0
  1  2  1  0  0  0  0
  2  3  1  0  0  0  0
  3  4  1  0  0  0  0
  4  5  1  0  0  0  0
  5  6  1  0  0  0  0
  6  7  1  0  0  0  0
  7  8  1  0  0  0  0
  8  9  1  0  0  0  0
  9 10  1  0  0  0  0
 10 11  1  0  0  0  0
 11 12  1  0  0  0  0
 12 13  1  0  0  0  0
  1 14  1  0  0  0  0
  1 15  1  0  0  0  0
  1 16  1  0  0  0  0
  2 17  1  0  0  0  0
  2 18  1  0  0  0  0
  3 19  1  0  0  0  0
  3 20  1  0  0  0  0
  4 21  1  0  0  0  0
  4 22  1  0  0  0  0
  5 23  1  0  0  0  0
  5 24  1  0  0  0  0
  6 25  1  0  0  0  0
  6 26  1  0  0  0  0
  7 27  1  0  0  0  0
  7 28  1  0  0  0  0
  8 29  1  0  0  0  0
  8 30  1  0  0  0  0
  9 31  1  0  0  0  0
  9 32  1  0  0  0  0
 10 33  1  0  0  0  0
 10 34  1  0  0  0  0
 11 35  1  0  0  0  0
 11 36  1  0  0  0  0
 12 37  1  0  0  0  0
 12 38  1  0  0  0  0
 13 39  1  0  0  0  0
 13 40  1  0  0  0  0
 13 41  1  0  0  0  0
M  CHG  1   1   1
M  END
