17
0.503
N           -1.93940  -0.51340   0.15834
C           -0.87770   0.47222  -0.20281
C            0.52598   0.08877   0.30054
C            1.04317  -1.18849  -0.36883
C            1.51539   1.24742   0.11877
H           -2.87052  -0.19140  -0.14540
H           -1.98408  -0.65851   1.17722
H           -1.77956  -1.43015  -0.28236
H           -1.15613   1.45179   0.20433
H           -0.85297   0.60038  -1.29065
H            0.43644  -0.11087   1.38204
H            2.03778  -1.45451  -0.00582
H            1.11446  -1.06049  -1.44952
H            0.39042  -2.04160  -0.17985
H            1.17835   2.15062   0.63088
H            1.63594   1.49465  -0.93672
H            2.50297   0.99721   0.51075
