36
0.161
N           -4.76748   0.75436   1.69065
C           -5.13677   1.63581   0.54812
C           -4.52619   1.15265  -0.76471
C           -3.03539   1.00320  -0.68944
C           -2.20061   2.09153  -0.89560
C           -0.83234   1.96034  -0.78661
C           -0.25104   0.73415  -0.46323
C            1.20018   0.63239  -0.35388
C            1.88945  -0.51061  -0.23320
C            3.34013  -0.60979  -0.12045
C            4.15405   0.51088   0.04309
C            5.52610   0.39404   0.15063
F            6.29493   1.50002   0.31067
C            6.10689  -0.86100   0.09561
C            5.32184  -1.98466  -0.06209
C            3.95231  -1.86313  -0.16804
C           -1.09757  -0.35235  -0.24307
C           -2.46496  -0.21603  -0.35262
Cl          -5.01720  -2.54373   0.57689
H           -4.97259  -0.23388   1.46691
H           -5.27111   1.00082   2.56273
H           -3.75630   0.81153   1.88534
H           -4.80342   2.65854   0.75967
H           -6.22941   1.69066   0.46192
H           -4.78167   1.83464  -1.58461
H           -4.96534   0.18708  -1.04041
H           -2.63501   3.04707  -1.14035
H           -0.19550   2.81348  -0.95355
H            1.74297   1.56042  -0.39388
H            1.35015  -1.44154  -0.23578
H            3.72779   1.49532   0.10164
H            7.17685  -0.93899   0.17989
H            5.78134  -2.95978  -0.10261
H            3.34079  -2.74168  -0.29209
H           -0.68212  -1.30678   0.03171
H           -3.10968  -1.05880  -0.16083
