 xtb: 6.5.1 (fef0646)
          01242310123D

 16 14  0     0  0            999 V2000
   -0.1158   -1.5191   -0.9353 N   0  0  0  0  0  0  0  0  0  0  0  0
    0.7492   -1.8024    0.2399 C   0  0  0  0  0  0  0  0  0  0  0  0
    1.1370   -0.5373    0.9886 C   0  0  0  0  0  0  0  0  0  0  0  0
    2.0574    0.6222   -0.0235 S   0  0  0  0  0  0  0  0  0  0  0  0
    0.7488    1.7513   -0.4225 C   0  0  0  0  0  0  0  0  0  0  0  0
   -2.8300    0.3494    0.1508 Cl  0  0  0  0  0  0  0  0  0  0  0  0
   -0.4198   -2.3812   -1.4164 H   0  0  0  0  0  0  0  0  0  0  0  0
    0.3843   -0.9355   -1.6257 H   0  0  0  0  0  0  0  0  0  0  0  0
   -0.9645   -0.9987   -0.6473 H   0  0  0  0  0  0  0  0  0  0  0  0
    1.6556   -2.3224   -0.0949 H   0  0  0  0  0  0  0  0  0  0  0  0
    0.2360   -2.5015    0.9133 H   0  0  0  0  0  0  0  0  0  0  0  0
    1.7552   -0.7761    1.8596 H   0  0  0  0  0  0  0  0  0  0  0  0
    0.2466   -0.0341    1.3748 H   0  0  0  0  0  0  0  0  0  0  0  0
    1.1268    2.5388   -1.0721 H   0  0  0  0  0  0  0  0  0  0  0  0
    0.3561    2.2112    0.4826 H   0  0  0  0  0  0  0  0  0  0  0  0
   -0.0634    1.2420   -0.9367 H   0  0  0  0  0  0  0  0  0  0  0  0
  1  2  1  0  0  0  0
  2  3  1  0  0  0  0
  3  4  1  0  0  0  0
  4  5  1  0  0  0  0
  1  7  1  0  0  0  0
  1  8  1  0  0  0  0
  1  9  1  0  0  0  0
  2 10  1  0  0  0  0
  2 11  1  0  0  0  0
  3 12  1  0  0  0  0
  3 13  1  0  0  0  0
  5 14  1  0  0  0  0
  5 15  1  0  0  0  0
  5 16  1  0  0  0  0
M  END
