 xtb: 6.5.1 (fef0646)
          02032320433D

 20 19  0     0  0            999 V2000
   -1.8763    1.0884    0.0996 N   0  0  0  0  0  0  0  0  0  0  0  0
   -1.3824   -0.0926   -0.6701 C   0  0  0  0  0  0  0  0  0  0  0  0
   -0.7193   -1.1520    0.2061 C   0  0  0  0  0  0  0  0  0  0  0  0
    0.5791   -0.7183    0.9004 C   0  0  0  0  0  0  0  0  0  0  0  0
    1.7633   -0.4387   -0.0496 C   0  0  0  0  0  0  0  0  0  0  0  0
    1.8992    1.0185   -0.4753 C   0  0  0  0  0  0  0  0  0  0  0  0
   -1.1080    1.5772    0.5720 H   0  0  0  0  0  0  0  0  0  0  0  0
   -2.5472    0.7969    0.8181 H   0  0  0  0  0  0  0  0  0  0  0  0
   -2.3448    1.7644   -0.5134 H   0  0  0  0  0  0  0  0  0  0  0  0
   -0.6925    0.2367   -1.4530 H   0  0  0  0  0  0  0  0  0  0  0  0
   -2.2316   -0.5342   -1.2065 H   0  0  0  0  0  0  0  0  0  0  0  0
   -0.5148   -2.0480   -0.3922 H   0  0  0  0  0  0  0  0  0  0  0  0
   -1.4443   -1.4746    0.9625 H   0  0  0  0  0  0  0  0  0  0  0  0
    0.8687   -1.5041    1.6110 H   0  0  0  0  0  0  0  0  0  0  0  0
    0.3958    0.1622    1.5244 H   0  0  0  0  0  0  0  0  0  0  0  0
    1.6798   -1.0854   -0.9313 H   0  0  0  0  0  0  0  0  0  0  0  0
    2.7004   -0.7475    0.4333 H   0  0  0  0  0  0  0  0  0  0  0  0
    1.0161    1.3755   -1.0029 H   0  0  0  0  0  0  0  0  0  0  0  0
    2.7525    1.1677   -1.1395 H   0  0  0  0  0  0  0  0  0  0  0  0
    2.0438    1.6682    0.3889 H   0  0  0  0  0  0  0  0  0  0  0  0
  1  2  1  0  0  0  0
  2  3  1  0  0  0  0
  3  4  1  0  0  0  0
  4  5  1  0  0  0  0
  5  6  1  0  0  0  0
  1  7  1  0  0  0  0
  1  8  1  0  0  0  0
  1  9  1  0  0  0  0
  2 10  1  0  0  0  0
  2 11  1  0  0  0  0
  3 12  1  0  0  0  0
  3 13  1  0  0  0  0
  4 14  1  0  0  0  0
  4 15  1  0  0  0  0
  5 16  1  0  0  0  0
  5 17  1  0  0  0  0
  6 18  1  0  0  0  0
  6 19  1  0  0  0  0
  6 20  1  0  0  0  0
M  CHG  1   1   1
M  END
