 xtb: 6.5.1 (fef0646)
          01242310093D

 26 25  0     0  0            999 V2000
   -2.2818   -0.9346    1.4660 N   0  0  0  0  0  0  0  0  0  0  0  0
   -2.2187   -2.0244    0.4539 C   0  0  0  0  0  0  0  0  0  0  0  0
   -1.5193   -1.5727   -0.8254 C   0  0  0  0  0  0  0  0  0  0  0  0
   -0.1459   -1.0259   -0.5719 C   0  0  0  0  0  0  0  0  0  0  0  0
    0.9483   -1.8726   -0.4625 C   0  0  0  0  0  0  0  0  0  0  0  0
    2.2013   -1.3695   -0.1906 C   0  0  0  0  0  0  0  0  0  0  0  0
    2.4083   -0.0003   -0.0113 C   0  0  0  0  0  0  0  0  0  0  0  0
    3.7098    0.4264    0.2603 O   0  0  0  0  0  0  0  0  0  0  0  0
    3.8553    1.8203    0.4111 C   0  0  0  0  0  0  0  0  0  0  0  0
    1.3000    0.8437   -0.1120 C   0  0  0  0  0  0  0  0  0  0  0  0
    0.0490    0.3358   -0.3836 C   0  0  0  0  0  0  0  0  0  0  0  0
   -3.1265    1.9942   -0.2266 Cl  0  0  0  0  0  0  0  0  0  0  0  0
   -1.3365   -0.6936    1.8048 H   0  0  0  0  0  0  0  0  0  0  0  0
   -2.8548   -1.1880    2.2870 H   0  0  0  0  0  0  0  0  0  0  0  0
   -2.6778   -0.0730    1.0478 H   0  0  0  0  0  0  0  0  0  0  0  0
   -3.2323   -2.3789    0.2284 H   0  0  0  0  0  0  0  0  0  0  0  0
   -1.6913   -2.8850    0.8827 H   0  0  0  0  0  0  0  0  0  0  0  0
   -2.1217   -0.8021   -1.3201 H   0  0  0  0  0  0  0  0  0  0  0  0
   -1.4541   -2.3987   -1.5440 H   0  0  0  0  0  0  0  0  0  0  0  0
    0.8066   -2.9334   -0.5904 H   0  0  0  0  0  0  0  0  0  0  0  0
    3.0503   -2.0263   -0.1091 H   0  0  0  0  0  0  0  0  0  0  0  0
    3.2591    2.1678    1.2560 H   0  0  0  0  0  0  0  0  0  0  0  0
    3.5524    2.3276   -0.5061 H   0  0  0  0  0  0  0  0  0  0  0  0
    4.9058    2.0407    0.6059 H   0  0  0  0  0  0  0  0  0  0  0  0
    1.4207    1.9036    0.0279 H   0  0  0  0  0  0  0  0  0  0  0  0
   -0.8012    0.9960   -0.4394 H   0  0  0  0  0  0  0  0  0  0  0  0
  1  2  1  0  0  0  0
  2  3  1  0  0  0  0
  3  4  1  0  0  0  0
  4  5  4  0  0  0  0
  5  6  4  0  0  0  0
  6  7  4  0  0  0  0
  7  8  1  0  0  0  0
  8  9  1  0  0  0  0
  7 10  4  0  0  0  0
  4 11  4  0  0  0  0
 10 11  4  0  0  0  0
  1 13  1  0  0  0  0
  1 14  1  0  0  0  0
  1 15  1  0  0  0  0
  2 16  1  0  0  0  0
  2 17  1  0  0  0  0
  3 18  1  0  0  0  0
  3 19  1  0  0  0  0
  5 20  1  0  0  0  0
  6 21  1  0  0  0  0
  9 22  1  0  0  0  0
  9 23  1  0  0  0  0
  9 24  1  0  0  0  0
 10 25  1  0  0  0  0
 11 26  1  0  0  0  0
M  END
