18
0.0
N            0.00358  -1.72161  -0.02215
C            1.12628  -0.96909  -0.65460
C            1.37801   0.39743  -0.00063
C            1.83615   0.24984   1.45028
C            2.39091   1.20939  -0.81128
Cl          -2.74773   0.44412   0.00017
H            0.21931  -1.96750   0.95346
H           -0.20854  -2.59536  -0.52442
H           -0.85503  -1.14508  -0.01182
H            0.91408  -0.82729  -1.72089
H            2.04539  -1.56347  -0.61590
H            0.41872   0.94309  -0.00264
H            1.09209  -0.26033   2.06299
H            2.02890   1.22164   1.90763
H            2.76031  -0.32624   1.50560
H            2.05993   1.35187  -1.84117
H            3.35429   0.69971  -0.84392
H            2.55607   2.19515  -0.37384
