18
 xtb: 6.5.1 (fef0646)
N            0.11406008497125       -1.80093332548644       -0.02139638138110
C            1.19890423206127       -0.99963182303146       -0.65717140528898
C            1.40166944823767        0.37559403638101       -0.00269564010302
C            1.85993239785576        0.24358383694244        1.44989309497652
C            2.39129354718976        1.21934268121021       -0.81070284698641
Cl          -2.91454347483228        0.53645666110941        0.00248124159974
H            0.25337835438702       -1.98784509594445        0.95311702492494
H           -0.17060127684823       -2.61849651851191       -0.52489921487113
H           -0.82976241893043       -1.17538741597959       -0.00989667272158
H            0.93306413298758       -0.83837894434982       -1.72150533368508
H            2.07277924776418       -1.56248175898889       -0.61727416453501
H            0.42067325960908        0.92831455180646       -0.00427132052001
H            1.10286725084126       -0.26788234498880        2.06281287034914
H            2.02726484753181        1.22168197037262        1.90712011071985
H            2.77208400508629       -0.32010860710426        1.50651744435667
H            2.05945356336220        1.35188810607606       -1.84121224738048
H            3.35906863969134        0.71138078214901       -0.84310473047713
H            2.54692828629360        2.19950573769133       -0.37356647871328
