18
 xtb: 6.5.1 (fef0646)
N            0.12874954391893       -1.81841827541516       -0.01369626153571
C            1.18581549716822       -0.98905522574201       -0.66698937021328
C            1.38946437903487        0.38278475356532       -0.00599291305377
C            1.83779999172099        0.24432107717376        1.44899297655671
C            2.39261772258379        1.21459634828298       -0.80894272285325
Cl          -2.89495450611665        0.54151487978093        0.00505450022013
H            0.26285520206653       -1.99062550517287        0.95457115038598
H           -0.16411839895649       -2.62422589585650       -0.52223082170106
H           -0.82534256698867       -1.18718673857749       -0.00467461449566
H            0.92184593111888       -0.83333328100572       -1.72250861819483
H            2.07133709658429       -1.55634255222238       -0.62742739446563
H            0.41852217699235        0.93266702599526       -0.00667518481292
H            1.09198131893029       -0.26151316123017        2.06223883996207
H            2.02685049781724        1.22112976924163        1.90592325915460
H            2.76170461033354       -0.32618164061688        1.50822596359386
H            2.06207090201304        1.35123675715525       -1.84130222524971
H            3.35773435514302        0.70656718003626       -0.84079339059109
H            2.54996361380426        2.19768661738004       -0.37317063706059
