 xtb: 6.5.1 (fef0646)
          01242315233D

 34 34  0     0  0            999 V2000
    1.0614    0.9456   -2.4226 N   0  0  0  0  0  0  0  0  0  0  0  0
    2.5305    1.0712   -2.4796 C   0  0  0  0  0  0  0  0  0  0  0  0
    3.0788    1.3436   -1.0777 C   0  0  0  0  0  0  0  0  0  0  0  0
    4.5786    1.3030   -1.0846 C   0  0  0  0  0  0  0  0  0  0  0  0
    5.3246    2.4765   -1.1677 C   0  0  0  0  0  0  0  0  0  0  0  0
    6.7006    2.4387   -1.2032 C   0  0  0  0  0  0  0  0  0  0  0  0
    5.2455    0.0810   -1.0393 C   0  0  0  0  0  0  0  0  0  0  0  0
    6.6219    0.0271   -1.0691 C   0  0  0  0  0  0  0  0  0  0  0  0
    7.3696    1.2079   -1.1577 C   0  0  0  0  0  0  0  0  0  0  0  0
    8.7423    1.0583   -1.1738 N   0  0  0  0  0  0  0  0  0  0  0  0
    9.4297    2.1192   -1.3466 N   0  0  0  0  0  0  0  0  0  0  0  0
   10.8039    1.9684   -1.3786 C   0  0  0  0  0  0  0  0  0  0  0  0
   11.4643    0.7346   -1.4506 C   0  0  0  0  0  0  0  0  0  0  0  0
   12.8410    0.6944   -1.5093 C   0  0  0  0  0  0  0  0  0  0  0  0
   13.5770    1.8716   -1.4940 C   0  0  0  0  0  0  0  0  0  0  0  0
   12.9301    3.0968   -1.4250 C   0  0  0  0  0  0  0  0  0  0  0  0
   11.5520    3.1508   -1.3736 C   0  0  0  0  0  0  0  0  0  0  0  0
    0.3433   -1.2117   -0.3788 Cl  0  0  0  0  0  0  0  0  0  0  0  0
    0.6679    0.7036   -3.3345 H   0  0  0  0  0  0  0  0  0  0  0  0
    0.6351    1.8100   -2.0799 H   0  0  0  0  0  0  0  0  0  0  0  0
    0.7986    0.1849   -1.7433 H   0  0  0  0  0  0  0  0  0  0  0  0
    2.8077    1.8799   -3.1567 H   0  0  0  0  0  0  0  0  0  0  0  0
    2.9485    0.1358   -2.8500 H   0  0  0  0  0  0  0  0  0  0  0  0
    2.6897    0.5745   -0.4079 H   0  0  0  0  0  0  0  0  0  0  0  0
    2.7402    2.3175   -0.7260 H   0  0  0  0  0  0  0  0  0  0  0  0
    4.8190    3.4301   -1.1964 H   0  0  0  0  0  0  0  0  0  0  0  0
    7.2888    3.3416   -1.2593 H   0  0  0  0  0  0  0  0  0  0  0  0
    4.6728   -0.8318   -0.9656 H   0  0  0  0  0  0  0  0  0  0  0  0
    7.1468   -0.9145   -1.0298 H   0  0  0  0  0  0  0  0  0  0  0  0
   10.8721   -0.1675   -1.4672 H   0  0  0  0  0  0  0  0  0  0  0  0
   13.3482   -0.2570   -1.5680 H   0  0  0  0  0  0  0  0  0  0  0  0
   14.6546    1.8326   -1.5396 H   0  0  0  0  0  0  0  0  0  0  0  0
   13.5047    4.0104   -1.4150 H   0  0  0  0  0  0  0  0  0  0  0  0
   11.0293    4.0926   -1.3182 H   0  0  0  0  0  0  0  0  0  0  0  0
  1  2  1  0  0  0  0
  2  3  1  0  0  0  0
  3  4  1  0  0  0  0
  4  5  4  0  0  0  0
  5  6  4  0  0  0  0
  4  7  4  0  0  0  0
  7  8  4  0  0  0  0
  6  9  4  0  0  0  0
  8  9  4  0  0  0  0
  9 10  1  0  0  0  0
 10 11  2  0  0  0  0
 11 12  1  0  0  0  0
 12 13  4  0  0  0  0
 13 14  4  0  0  0  0
 14 15  4  0  0  0  0
 15 16  4  0  0  0  0
 12 17  4  0  0  0  0
 16 17  4  0  0  0  0
  1 19  1  0  0  0  0
  1 20  1  0  0  0  0
  1 21  1  0  0  0  0
  2 22  1  0  0  0  0
  2 23  1  0  0  0  0
  3 24  1  0  0  0  0
  3 25  1  0  0  0  0
  5 26  1  0  0  0  0
  6 27  1  0  0  0  0
  7 28  1  0  0  0  0
  8 29  1  0  0  0  0
 13 30  1  0  0  0  0
 14 31  1  0  0  0  0
 15 32  1  0  0  0  0
 16 33  1  0  0  0  0
 17 34  1  0  0  0  0
M  END
