17
 xtb: 6.5.1 (fef0646)
N           -4.09450136905612       -0.91117385920273        0.20265526285268
C           -3.07458401022164        0.13448761765284        0.53035319572572
C           -2.13220252731741        0.43386466835178       -0.63493714143842
C           -1.13666444808848        1.56998863707574       -0.34634556525449
C           -0.07702350737054        1.21684881057417        0.68359311725594
I            1.31044266578225       -0.23881072831995       -0.06854234330283
H           -4.63520973440418       -0.62716537725400       -0.57762686545978
H           -4.64585441270793       -1.13633853571542        1.00092327049167
H           -3.57938740744125       -1.80487570143305       -0.08038730078469
H           -2.43006475426644       -0.22717738049534        1.38530615622212
H           -3.54889776987571        1.01680642720702        0.87923500818302
H           -2.75319212673595        0.73019311294610       -1.50137052413107
H           -1.58006083609247       -0.43446633380902       -0.96095342249790
H           -1.69038946304846        2.48255684237338       -0.01572522642230
H           -0.64241570559138        1.90991967327964       -1.28859793081580
H           -0.48468194933845        0.89910208435512        1.60568053931364
H            0.57936944597354        2.10521208538702        0.89433393860928
