 xtb: 6.5.1 (fef0646)
          01242310053D

 36 36  0     0  0            999 V2000
   -4.8037    0.5224   -1.6554 N   0  0  0  0  0  0  0  0  0  0  0  0
   -5.1472    1.5539   -0.6372 C   0  0  0  0  0  0  0  0  0  0  0  0
   -4.5062    1.2548    0.7154 C   0  0  0  0  0  0  0  0  0  0  0  0
   -3.0174    1.0934    0.6269 C   0  0  0  0  0  0  0  0  0  0  0  0
   -2.4537   -0.1615    0.4470 C   0  0  0  0  0  0  0  0  0  0  0  0
   -1.0891   -0.3140    0.3233 C   0  0  0  0  0  0  0  0  0  0  0  0
   -0.2391    0.7911    0.3708 C   0  0  0  0  0  0  0  0  0  0  0  0
    1.2090    0.6728    0.2387 C   0  0  0  0  0  0  0  0  0  0  0  0
    1.8968   -0.4772    0.2573 C   0  0  0  0  0  0  0  0  0  0  0  0
    3.3442   -0.5931    0.1199 C   0  0  0  0  0  0  0  0  0  0  0  0
    4.1487    0.4900   -0.2334 C   0  0  0  0  0  0  0  0  0  0  0  0
    5.5176    0.3577   -0.3615 C   0  0  0  0  0  0  0  0  0  0  0  0
    6.2774    1.4271   -0.7065 F   0  0  0  0  0  0  0  0  0  0  0  0
    6.1044   -0.8752   -0.1357 C   0  0  0  0  0  0  0  0  0  0  0  0
    5.3285   -1.9621    0.2113 C   0  0  0  0  0  0  0  0  0  0  0  0
    3.9621   -1.8255    0.3372 C   0  0  0  0  0  0  0  0  0  0  0  0
   -0.8141    2.0509    0.5373 C   0  0  0  0  0  0  0  0  0  0  0  0
   -2.1794    2.1983    0.6612 C   0  0  0  0  0  0  0  0  0  0  0  0
   -5.0338   -2.5881   -0.0922 Cl  0  0  0  0  0  0  0  0  0  0  0  0
   -5.3252    0.6476   -2.5390 H   0  0  0  0  0  0  0  0  0  0  0  0
   -5.0045   -0.4278   -1.2921 H   0  0  0  0  0  0  0  0  0  0  0  0
   -3.7971    0.5489   -1.8783 H   0  0  0  0  0  0  0  0  0  0  0  0
   -6.2372    1.6229   -0.5345 H   0  0  0  0  0  0  0  0  0  0  0  0
   -4.8193    2.5373   -0.9954 H   0  0  0  0  0  0  0  0  0  0  0  0
   -4.9378    0.3372    1.1313 H   0  0  0  0  0  0  0  0  0  0  0  0
   -4.7435    2.0437    1.4392 H   0  0  0  0  0  0  0  0  0  0  0  0
   -3.1017   -1.0213    0.3884 H   0  0  0  0  0  0  0  0  0  0  0  0
   -0.6791   -1.2977    0.1718 H   0  0  0  0  0  0  0  0  0  0  0  0
    1.7512    1.5965    0.1375 H   0  0  0  0  0  0  0  0  0  0  0  0
    1.3598   -1.3981    0.4025 H   0  0  0  0  0  0  0  0  0  0  0  0
    3.7169    1.4545   -0.4273 H   0  0  0  0  0  0  0  0  0  0  0  0
    7.1718   -0.9655   -0.2381 H   0  0  0  0  0  0  0  0  0  0  0  0
    5.7927   -2.9204    0.3844 H   0  0  0  0  0  0  0  0  0  0  0  0
    3.3578   -2.6751    0.6093 H   0  0  0  0  0  0  0  0  0  0  0  0
   -0.1747    2.9179    0.5695 H   0  0  0  0  0  0  0  0  0  0  0  0
   -2.6092    3.1792    0.7829 H   0  0  0  0  0  0  0  0  0  0  0  0
  1  2  1  0  0  0  0
  2  3  1  0  0  0  0
  3  4  1  0  0  0  0
  4  5  4  0  0  0  0
  5  6  4  0  0  0  0
  6  7  4  0  0  0  0
  7  8  1  0  0  0  0
  8  9  2  0  0  0  0
  9 10  1  0  0  0  0
 10 11  4  0  0  0  0
 11 12  4  0  0  0  0
 12 13  1  0  0  0  0
 12 14  4  0  0  0  0
 14 15  4  0  0  0  0
 10 16  4  0  0  0  0
 15 16  4  0  0  0  0
  7 17  4  0  0  0  0
  4 18  4  0  0  0  0
 17 18  4  0  0  0  0
  1 20  1  0  0  0  0
  1 21  1  0  0  0  0
  1 22  1  0  0  0  0
  2 23  1  0  0  0  0
  2 24  1  0  0  0  0
  3 25  1  0  0  0  0
  3 26  1  0  0  0  0
  5 27  1  0  0  0  0
  6 28  1  0  0  0  0
  8 29  1  0  0  0  0
  9 30  1  0  0  0  0
 11 31  1  0  0  0  0
 14 32  1  0  0  0  0
 15 33  1  0  0  0  0
 16 34  1  0  0  0  0
 17 35  1  0  0  0  0
 18 36  1  0  0  0  0
M  END
