26
 xtb: 6.5.1 (fef0646)
N           -2.22638528567950       -1.06894787432895        1.53840348222946
C           -2.19363554167194       -2.09045559929774        0.45432872592867
C           -1.52773206412085       -1.56640008437149       -0.81707879778189
C           -0.15294764984740       -1.02147824028626       -0.56492992132341
C            0.93974428955274       -1.87073870072115       -0.45401998309573
C            2.19369478404684       -1.36991452687866       -0.18321550827633
C            2.40336894750165        0.00000689472446       -0.00948204084971
O            3.70451723049038        0.42427644738328        0.26101688063643
C            3.85487698033004        1.81866331589605        0.40765446721226
C            1.29668742076627        0.84602729948356       -0.11347472609136
C            0.04340940165750        0.34074374582922       -0.38127468552767
Cl          -3.15370535455592        2.13268369592946       -0.30156461577823
H           -1.31664089130515       -0.72023804751447        1.80480439137276
H           -2.81766406876110       -1.24503875514752        2.31595702380333
H           -2.68575147550261       -0.11494843658618        1.09156544412355
H           -3.22665449064090       -2.39549505027003        0.23197445313067
H           -1.67956445631112       -2.90982857938994        0.86574970775265
H           -2.12837260346560       -0.79466621210301       -1.30381797702721
H           -1.45889688238010       -2.38687303080410       -1.55340603984945
H            0.80333001277286       -2.93292139586024       -0.58704415586888
H            3.04761985607846       -2.02695329018108       -0.10608652896300
H            3.25672082020506        2.16926096488313        1.25256201530639
H            3.55593278130420        2.32623169965892       -0.50885317244676
H            4.90526510708955        2.03907627961756        0.60825199021527
H            1.42071435322927        1.90447660116347        0.02523952210178
H           -0.80257792894568        0.99800236204832       -0.43956140908794
