 xtb: 6.5.1 (fef0646)
          02032320163D

 26 25  0     0  0            999 V2000
   -2.3085   -0.9603    1.4809 N   0  0  0  0  0  0  0  0  0  0  0  0
   -2.2211   -2.0352    0.4515 C   0  0  0  0  0  0  0  0  0  0  0  0
   -1.5249   -1.5580   -0.8211 C   0  0  0  0  0  0  0  0  0  0  0  0
   -0.1493   -1.0175   -0.5665 C   0  0  0  0  0  0  0  0  0  0  0  0
    0.0498    0.3402   -0.3633 C   0  0  0  0  0  0  0  0  0  0  0  0
    1.3038    0.8428   -0.0987 C   0  0  0  0  0  0  0  0  0  0  0  0
    2.4123   -0.0034   -0.0205 C   0  0  0  0  0  0  0  0  0  0  0  0
    3.7190    0.4191    0.2441 O   0  0  0  0  0  0  0  0  0  0  0  0
    3.8634    1.8084    0.4456 C   0  0  0  0  0  0  0  0  0  0  0  0
    2.2001   -1.3705   -0.2174 C   0  0  0  0  0  0  0  0  0  0  0  0
    0.9444   -1.8667   -0.4817 C   0  0  0  0  0  0  0  0  0  0  0  0
   -3.1177    2.0086   -0.2365 Cl  0  0  0  0  0  0  0  0  0  0  0  0
   -2.8904   -1.2326    2.2853 H   0  0  0  0  0  0  0  0  0  0  0  0
   -2.7057   -0.0997    1.0681 H   0  0  0  0  0  0  0  0  0  0  0  0
   -1.3730   -0.7174    1.8344 H   0  0  0  0  0  0  0  0  0  0  0  0
   -3.2274   -2.4022    0.2159 H   0  0  0  0  0  0  0  0  0  0  0  0
   -1.6831   -2.8940    0.8696 H   0  0  0  0  0  0  0  0  0  0  0  0
   -2.1288   -0.7790   -1.2987 H   0  0  0  0  0  0  0  0  0  0  0  0
   -1.4638   -2.3696   -1.5549 H   0  0  0  0  0  0  0  0  0  0  0  0
   -0.7993    1.0021   -0.4043 H   0  0  0  0  0  0  0  0  0  0  0  0
    1.4267    1.9000    0.0527 H   0  0  0  0  0  0  0  0  0  0  0  0
    4.9130    2.0254    0.6466 H   0  0  0  0  0  0  0  0  0  0  0  0
    3.2689    2.1266    1.3035 H   0  0  0  0  0  0  0  0  0  0  0  0
    3.5584    2.3511   -0.4506 H   0  0  0  0  0  0  0  0  0  0  0  0
    3.0472   -2.0309   -0.1542 H   0  0  0  0  0  0  0  0  0  0  0  0
    0.7995   -2.9245   -0.6235 H   0  0  0  0  0  0  0  0  0  0  0  0
  1  2  1  0  0  0  0
  2  3  1  0  0  0  0
  3  4  1  0  0  0  0
  4  5  4  0  0  0  0
  5  6  4  0  0  0  0
  6  7  4  0  0  0  0
  7  8  1  0  0  0  0
  8  9  1  0  0  0  0
  7 10  4  0  0  0  0
  4 11  4  0  0  0  0
 10 11  4  0  0  0  0
  1 13  1  0  0  0  0
  1 14  1  0  0  0  0
  1 15  1  0  0  0  0
  2 16  1  0  0  0  0
  2 17  1  0  0  0  0
  3 18  1  0  0  0  0
  3 19  1  0  0  0  0
  5 20  1  0  0  0  0
  6 21  1  0  0  0  0
  9 22  1  0  0  0  0
  9 23  1  0  0  0  0
  9 24  1  0  0  0  0
 10 25  1  0  0  0  0
 11 26  1  0  0  0  0
M  END
