17
0.79
N           -4.01043  -0.93149  -0.07402
C           -3.02666   0.15764  -0.36005
C           -2.07683   0.41502   0.80624
C           -1.09735   1.57787   0.57273
C           -0.07643   1.32918  -0.52402
I            1.23677  -0.26680  -0.04303
H           -3.52628  -1.80945   0.13258
H           -4.63074  -1.09021  -0.87302
H           -4.58993  -0.69134   0.73493
H           -3.56999   1.07767  -0.60552
H           -2.45870  -0.10215  -1.25997
H           -1.51788  -0.50047   1.02756
H           -2.67173   0.60912   1.70638
H           -0.56477   1.80353   1.50771
H           -1.67162   2.48622   0.34334
H            0.56591   2.19746  -0.68706
H           -0.54775   1.08992  -1.47782
