  33

 N         -5.2122007081        0.2124929894       -1.7693577599
 C         -5.3682896465        0.8351513544       -0.4244158980
 C         -4.7162422824        0.0076405435        0.6810752453
 C         -3.2352362988       -0.1489127902        0.4993163673
 C         -2.3733816937        0.9021358118        0.7917752131
 C         -1.0157215689        0.7730924206        0.6077080334
 C         -2.6977066467       -1.3340316469        0.0079538033
 C         -1.3409330153       -1.4715266304       -0.1778187527
 C         -0.4752448836       -0.4172620560        0.1202584909
 N          0.8711079096       -0.5500317345       -0.0616667967
 N          1.6647434448        0.4280619364        0.1781490534
 C          3.0153658849        0.2854972003        0.0397000870
 C          3.5680346716       -0.9365269798       -0.3500155010
 C          4.9301078359       -1.0746899501       -0.4882918904
 C          5.7649192365        0.0001775635       -0.2415305309
 C          5.2325921398        1.2168448627        0.1452961912
 C          3.8716194950        1.3626186926        0.2863044328
 H         -5.6449775401        0.7848666228       -2.5108769578
 H         -5.6529306571       -0.7191738101       -1.7993095870
 H         -4.2161834937        0.0931905458       -2.0083718840
 H         -6.4361220065        0.9788620925       -0.2156447813
 H         -4.9298770142        1.8400229131       -0.4410673635
 H         -5.1818589040       -0.9829400632        0.7182422659
 H         -4.9087505078        0.4578386688        1.6618423228
 H         -2.7794879881        1.8249241882        1.1718673920
 H         -0.3461161761        1.5847076690        0.8381552398
 H         -3.3563849511       -2.1547343160       -0.2237398497
 H         -0.9253026965       -2.3920495409       -0.5522830399
 H          2.9054024944       -1.7647232248       -0.5374056878
 H          5.3480442528       -2.0228649006       -0.7891461879
 H          6.8327477187       -0.1103790696       -0.3505926153
 H          5.8863562552        2.0535186260        0.3372419001
 H          3.4453745379        2.3053572072        0.5871271553
          33
        -46.39411297
 N         -5.0865768834        1.3365894778       -1.2697725624
 C         -5.4788213999        0.0671780030       -0.5949080036
 C         -4.7400634148       -0.1463703947        0.7244544131
 C         -3.2554341364       -0.2726260491        0.5503082480
 C         -2.4161424608        0.8140227094        0.7711973921
 C         -1.0567024927        0.7030952078        0.5885911614
 C         -2.6936406080       -1.4740768452        0.1320072784
 C         -1.3348649910       -1.5934796844       -0.0516593205
 C         -0.4917667166       -0.5035529269        0.1743021425
 N          0.8561762631       -0.6178453367       -0.0075530611
 N          1.6304245277        0.3873990791        0.1766590763
 C          2.9816791365        0.2668874257        0.0246955648
 C          3.5550943289       -0.9593732708       -0.3191287142
 C          4.9178756911       -1.0759002229       -0.4696115392
 C          5.7329368863        0.0255474259       -0.2810009428
 C          5.1800798646        1.2468510840        0.0597924846
 C          3.8182188780        1.3709841715        0.2126482264
 H         -5.2952670970        2.1522075936       -0.6745705314
 H         -5.5870921711        1.4676660176       -2.1625163099
 H         -4.0759476410        1.3506701199       -1.4740356024
 H         -5.2804250860       -0.7747514069       -1.2686540915
 H         -6.5637866934        0.0679764232       -0.4295752590
 H         -5.1159728460       -1.0412305403        1.2341572470
 H         -4.9537154899        0.6865525367        1.4024672810
 H         -2.8397670063        1.7502164431        1.0950344440
 H         -0.4041502858        1.5416438424        0.7652521587
 H         -3.3360755791       -2.3211556139       -0.0443170337
 H         -0.9009709865       -2.5266211184       -0.3701920434
 H          2.9076541178       -1.8082460351       -0.4616879780
 H          5.3515886353       -2.0277276270       -0.7344787335
 H          6.8013830365       -0.0680733468       -0.3993647482
 H          5.8186033067        2.1042046102        0.2063270136
 H          3.3765109105        2.3171742083        0.4782802532
