18
0.0
N            0.20927  -1.69786  -0.62712
C           -0.78143  -1.64541   0.48301
C           -1.29302  -0.23179   0.74335
C           -2.08902   0.34983  -0.42472
C           -2.62314   1.74401  -0.13340
Cl           2.65950   0.67939   0.03873
H           -0.21981  -1.43886  -1.52910
H            0.62132  -2.63884  -0.73992
H            0.98601  -1.03080  -0.45467
H           -0.32306  -2.05304   1.39323
H           -1.62360  -2.31026   0.25579
H           -0.44533   0.42680   0.96858
H           -1.91641  -0.21625   1.64727
H           -2.91635  -0.32835  -0.67314
H           -1.45997   0.37177  -1.32408
H           -1.81024   2.44171   0.08109
H           -3.28213   1.74110   0.73783
H           -3.19190   2.15088  -0.97348
