18
0.874
N            0.43855  -1.89066  -0.35758
C           -0.81416  -1.40567   0.28447
C           -1.26357  -0.06326  -0.27811
C           -2.54526   0.46066   0.37069
C           -2.98592   1.80097  -0.19700
Cl           2.88514   0.54232   0.10615
H            1.20220  -1.20567  -0.22977
H            0.30938  -2.01683  -1.37392
H            0.75757  -2.79691   0.03484
H           -0.66657  -1.32269   1.36803
H           -1.60994  -2.14929   0.15465
H           -1.40554  -0.14915  -1.36227
H           -0.45945   0.67302  -0.15572
H           -2.39615   0.54007   1.45590
H           -3.34405  -0.28320   0.24843
H           -2.21706   2.56355  -0.05245
H           -3.90270   2.16581   0.27335
H           -3.17290   1.73314  -1.27111
