18
0.122
N           -0.03787  -1.28885  -0.80968
C           -0.95131  -1.29610   0.36549
C           -1.16175   0.09663   0.95276
C           -1.76491   1.10162  -0.03165
C           -3.15140   0.71048  -0.51943
Cl           2.88897   0.35568   0.09788
H           -0.44439  -0.76515  -1.60040
H            0.17283  -2.24264  -1.14710
H            0.86334  -0.83244  -0.56962
H           -0.54656  -1.96901   1.13252
H           -1.91409  -1.73486   0.07805
H           -0.19917   0.47442   1.32143
H           -1.80546   0.03193   1.84010
H           -1.08890   1.22805  -0.88729
H           -1.80821   2.09474   0.43807
H           -3.58208   1.46718  -1.18063
H           -3.84088   0.57625   0.31715
H           -3.13188  -0.22912  -1.07535
