18
0.965
N            0.21642  -1.69386  -0.31991
C           -0.93400  -0.93700   0.24686
C           -1.08453   0.43750  -0.39346
C           -2.21445   1.27635   0.21089
C           -3.59747   0.69525  -0.04167
Cl           3.09635   0.20975   0.14608
H            0.09873  -1.84157  -1.33474
H            0.33173  -2.62106   0.12132
H            1.10219  -1.16850  -0.18745
H           -0.80641  -0.82820   1.33065
H           -1.85456  -1.51813   0.11755
H           -1.24932   0.31937  -1.47130
H           -0.13001   0.97357  -0.30865
H           -2.16829   2.29944  -0.18838
H           -2.04558   1.38505   1.29066
H           -4.38970   1.33371   0.35831
H           -3.71165  -0.28747   0.42048
H           -3.78485   0.57249  -1.11079
