22
1.969
N           -2.74986  -1.92139  -0.60945
C           -1.31387  -1.71272  -0.26585
C           -0.81754  -0.33202  -0.68581
C            0.63579  -0.04791  -0.41582
C            1.45983  -0.92247   0.27928
C            2.78506  -0.61571   0.50832
C            3.32137   0.57397   0.05228
F            4.62778   0.87760   0.28328
C            2.50708   1.45193  -0.63843
C            1.18255   1.14455  -0.86760
Cl          -4.53909   0.69835   0.91054
H           -3.09283  -2.83893  -0.29639
H           -2.89840  -1.85521  -1.62435
H           -3.33391  -1.19395  -0.16399
H           -0.70574  -2.48868  -0.74465
H           -1.17519  -1.84459   0.81327
H           -1.42253   0.43355  -0.18849
H           -1.00644  -0.19664  -1.75577
H            1.06400  -1.85324   0.64575
H            3.42288  -1.29534   1.04553
H            2.92736   2.37729  -0.99099
H            0.55566   1.83653  -1.40423
