22
0.883
N           -2.74853  -1.91981   0.33699
C           -1.34671  -1.49152   0.60844
C           -0.73278  -0.74110  -0.56789
C            0.66967  -0.28200  -0.29756
C            1.75088  -1.10130  -0.58452
C            3.03797  -0.69230  -0.30509
C            3.27277   0.54176   0.27329
F            4.54292   0.94387   0.55150
C            2.19710   1.35923   0.56902
C            0.90975   0.95089   0.28995
Cl          -4.49751   1.03085  -0.44821
H           -2.78869  -2.55445  -0.47037
H           -3.33373  -1.10065   0.11547
H           -3.16999  -2.40225   1.14511
H           -0.73071  -2.36449   0.85310
H           -1.32051  -0.85662   1.50156
H           -1.35638   0.12250  -0.82166
H           -0.74420  -1.37552  -1.45987
H            1.57573  -2.06660  -1.02805
H            3.87821  -1.32550  -0.52924
H            2.38590   2.31656   1.02206
H            0.07679   1.58967   0.52991
