 xtb: 6.5.1 (fef0646)
          01242316563D

 23 22  0     0  0            999 V2000
   -3.2706   -1.4017    0.6703 N   0  0  0  0  0  0  0  0  0  0  0  0
   -2.0038   -2.0128    0.1667 C   0  0  0  0  0  0  0  0  0  0  0  0
   -0.8629   -1.0643    0.2184 C   0  0  0  0  0  0  0  0  0  0  0  0
    0.4098   -1.4475    0.1629 C   0  0  0  0  0  0  0  0  0  0  0  0
    1.5576   -0.5385    0.1835 C   0  0  0  0  0  0  0  0  0  0  0  0
    2.8028   -0.9826   -0.2609 C   0  0  0  0  0  0  0  0  0  0  0  0
    3.8982   -0.1450   -0.2519 C   0  0  0  0  0  0  0  0  0  0  0  0
    3.7740    1.1525    0.2037 C   0  0  0  0  0  0  0  0  0  0  0  0
    2.5507    1.6091    0.6530 C   0  0  0  0  0  0  0  0  0  0  0  0
    1.4533    0.7737    0.6447 C   0  0  0  0  0  0  0  0  0  0  0  0
   -3.3151    1.6932   -0.9506 Cl  0  0  0  0  0  0  0  0  0  0  0  0
   -4.0807   -2.0260    0.5541 H   0  0  0  0  0  0  0  0  0  0  0  0
   -3.4630   -0.5244    0.1641 H   0  0  0  0  0  0  0  0  0  0  0  0
   -3.1891   -1.1635    1.6704 H   0  0  0  0  0  0  0  0  0  0  0  0
   -2.1402   -2.3583   -0.8652 H   0  0  0  0  0  0  0  0  0  0  0  0
   -1.7667   -2.9095    0.7517 H   0  0  0  0  0  0  0  0  0  0  0  0
   -1.0997   -0.0156    0.2522 H   0  0  0  0  0  0  0  0  0  0  0  0
    0.6236   -2.5000    0.0822 H   0  0  0  0  0  0  0  0  0  0  0  0
    2.9001   -1.9940   -0.6187 H   0  0  0  0  0  0  0  0  0  0  0  0
    4.8531   -0.5037   -0.6014 H   0  0  0  0  0  0  0  0  0  0  0  0
    4.6308    1.8070    0.2107 H   0  0  0  0  0  0  0  0  0  0  0  0
    2.4539    2.6209    1.0130 H   0  0  0  0  0  0  0  0  0  0  0  0
    0.5079    1.1340    1.0117 H   0  0  0  0  0  0  0  0  0  0  0  0
  1  2  1  0  0  0  0
  2  3  1  0  0  0  0
  3  4  2  0  0  0  0
  4  5  1  0  0  0  0
  5  6  4  0  0  0  0
  6  7  4  0  0  0  0
  7  8  4  0  0  0  0
  8  9  4  0  0  0  0
  5 10  4  0  0  0  0
  9 10  4  0  0  0  0
  1 12  1  0  0  0  0
  1 13  1  0  0  0  0
  1 14  1  0  0  0  0
  2 15  1  0  0  0  0
  2 16  1  0  0  0  0
  3 17  1  0  0  0  0
  4 18  1  0  0  0  0
  6 19  1  0  0  0  0
  7 20  1  0  0  0  0
  8 21  1  0  0  0  0
  9 22  1  0  0  0  0
 10 23  1  0  0  0  0
M  END
