16
 xtb: 6.5.1 (fef0646)
N            0.50169031580479        1.58547752208549       -0.02177434942020
C           -0.62254122067225        0.68796210243877        0.00017029019750
C           -0.43312421907127       -0.68455566874108       -0.02021232620923
C           -1.51481800623268       -1.54298224259508       -0.01940791173713
C           -2.79883806811909       -1.03522971044337       -0.00046908286691
C           -2.99779031881809        0.33109439524094        0.02275591789021
C           -1.91377846691322        1.18724736296691        0.02488652853694
Cl           3.54398306977123       -0.37684288452462        0.01480996948629
H            0.54322919318116        2.22715491853985        0.77604638173217
H            0.60764851505970        2.12937728780464       -0.85625218316520
H            1.43971831109642        1.05862290821291        0.05205472505910
H            0.57039198842523       -1.09992373732833       -0.00897978983339
H           -1.37263395973911       -2.61656286996316       -0.00919842709358
H           -3.65099226423258       -1.68773077361023       -0.00153638688548
H           -3.98035624036619        0.75005019133689        0.00990017966155
H           -2.02744353403874        2.25308349820989        0.01240473002805
