 xtb: 6.5.1 (fef0646)
          01242316563D

 16 15  0     0  0            999 V2000
    0.5433    1.5436    0.0020 N   0  0  0  0  0  0  0  0  0  0  0  0
   -0.5970    0.6668    0.0007 C   0  0  0  0  0  0  0  0  0  0  0  0
   -0.4285   -0.7083    0.0020 C   0  0  0  0  0  0  0  0  0  0  0  0
   -1.5222   -1.5510    0.0013 C   0  0  0  0  0  0  0  0  0  0  0  0
   -2.7985   -1.0246   -0.0006 C   0  0  0  0  0  0  0  0  0  0  0  0
   -2.9771    0.3444   -0.0019 C   0  0  0  0  0  0  0  0  0  0  0  0
   -1.8808    1.1845   -0.0012 C   0  0  0  0  0  0  0  0  0  0  0  0
    3.4647   -0.3258   -0.0010 Cl  0  0  0  0  0  0  0  0  0  0  0  0
    0.5900    2.1647    0.8195 H   0  0  0  0  0  0  0  0  0  0  0  0
    0.5889    2.1686   -0.8125 H   0  0  0  0  0  0  0  0  0  0  0  0
    1.4497    1.0439    0.0003 H   0  0  0  0  0  0  0  0  0  0  0  0
    0.5701   -1.1107    0.0033 H   0  0  0  0  0  0  0  0  0  0  0  0
   -1.3793   -2.6195    0.0021 H   0  0  0  0  0  0  0  0  0  0  0  0
   -3.6537   -1.6810   -0.0012 H   0  0  0  0  0  0  0  0  0  0  0  0
   -3.9726    0.7581   -0.0034 H   0  0  0  0  0  0  0  0  0  0  0  0
   -2.0134    2.2529   -0.0023 H   0  0  0  0  0  0  0  0  0  0  0  0
  1  2  1  0  0  0  0
  2  3  4  0  0  0  0
  3  4  4  0  0  0  0
  4  5  4  0  0  0  0
  5  6  4  0  0  0  0
  2  7  4  0  0  0  0
  6  7  4  0  0  0  0
  1  9  1  0  0  0  0
  1 10  1  0  0  0  0
  1 11  1  0  0  0  0
  3 12  1  0  0  0  0
  4 13  1  0  0  0  0
  5 14  1  0  0  0  0
  6 15  1  0  0  0  0
  7 16  1  0  0  0  0
M  END
