26
 xtb: 6.5.1 (fef0646)
N            2.16861313113380       -1.65992856742384       -1.30727188182933
C            0.73726808221607       -1.32675374775859       -1.03315160869019
C            0.51968128680616        0.15060390183699       -0.72314088359469
C           -0.92920612542670        0.47754798331268       -0.49802626232269
C           -1.74285141551701        0.62240770975714       -1.54032411767568
C           -3.20948303849641        0.90539222804473       -1.43655864959613
C           -3.63046038559825        1.37248316290052       -0.03313412814186
C           -2.94846438115137        0.53090497715169        1.05343136815167
C           -1.41732167463186        0.58874386083694        0.92254136717602
Cl           3.88343301763906       -0.45163338331059        1.91065024134062
H            2.59740667991214       -1.09870583553691       -2.00221251910183
H            2.38058974344081       -2.62740272644618       -1.37474825037181
H            2.75429730534951       -1.35249840006848       -0.37112724911918
H            0.37001960161282       -1.92077693496717       -0.18096165064637
H            0.19708847962151       -1.62244291119841       -1.88968139163459
H            0.90940339235052        0.76979118012517       -1.54374352416852
H            1.10237579654615        0.46796805967510        0.15924394005603
H           -1.31706073201789        0.52971048802483       -2.52715147714749
H           -3.76329012582590       -0.00754508931489       -1.69657898049489
H           -3.49679917903859        1.64861488776178       -2.18991252764872
H           -4.72269383710318        1.33781699362757        0.07704302541358
H           -3.35478651804815        2.42486936500377        0.09771035302178
H           -3.28267700209124       -0.51141258979314        0.96744793814035
H           -3.26698455480979        0.85737174913574        2.05290299878612
H           -0.95384061767781       -0.20705906035931        1.52139188842115
H           -1.04602510098380        1.52787297743302        1.34858209048362
