 xtb: 6.5.1 (fef0646)
          01242317083D

 26 25  0     0  0            999 V2000
    2.2322   -1.6121   -1.1665 N   0  0  0  0  0  0  0  0  0  0  0  0
    0.7808   -1.3130   -0.9936 C   0  0  0  0  0  0  0  0  0  0  0  0
    0.5250    0.1646   -0.7168 C   0  0  0  0  0  0  0  0  0  0  0  0
   -0.9269    0.4775   -0.4967 C   0  0  0  0  0  0  0  0  0  0  0  0
   -1.7399    0.6216   -1.5394 C   0  0  0  0  0  0  0  0  0  0  0  0
   -3.2074    0.9022   -1.4366 C   0  0  0  0  0  0  0  0  0  0  0  0
   -3.6299    1.3706   -0.0341 C   0  0  0  0  0  0  0  0  0  0  0  0
   -2.9489    0.5297    1.0535 C   0  0  0  0  0  0  0  0  0  0  0  0
   -1.4176    0.5873    0.9236 C   0  0  0  0  0  0  0  0  0  0  0  0
    3.7957   -0.5026    1.7690 Cl  0  0  0  0  0  0  0  0  0  0  0  0
    2.6240   -1.0884   -1.9610 H   0  0  0  0  0  0  0  0  0  0  0  0
    2.4068   -2.6140   -1.3285 H   0  0  0  0  0  0  0  0  0  0  0  0
    2.7593   -1.3295   -0.3220 H   0  0  0  0  0  0  0  0  0  0  0  0
    0.3728   -1.9152   -0.1730 H   0  0  0  0  0  0  0  0  0  0  0  0
    0.2251   -1.6253   -1.8854 H   0  0  0  0  0  0  0  0  0  0  0  0
    0.9089    0.7711   -1.5448 H   0  0  0  0  0  0  0  0  0  0  0  0
    1.1020    0.4795    0.1598 H   0  0  0  0  0  0  0  0  0  0  0  0
   -1.3159    0.5302   -2.5267 H   0  0  0  0  0  0  0  0  0  0  0  0
   -3.7624   -0.0087   -1.6963 H   0  0  0  0  0  0  0  0  0  0  0  0
   -3.4963    1.6474   -2.1902 H   0  0  0  0  0  0  0  0  0  0  0  0
   -4.7226    1.3373    0.0764 H   0  0  0  0  0  0  0  0  0  0  0  0
   -3.3547    2.4244    0.0972 H   0  0  0  0  0  0  0  0  0  0  0  0
   -3.2828   -0.5117    0.9675 H   0  0  0  0  0  0  0  0  0  0  0  0
   -3.2673    0.8572    2.0528 H   0  0  0  0  0  0  0  0  0  0  0  0
   -0.9541   -0.2076    1.5217 H   0  0  0  0  0  0  0  0  0  0  0  0
   -1.0463    1.5274    1.3492 H   0  0  0  0  0  0  0  0  0  0  0  0
  1  2  1  0  0  0  0
  2  3  1  0  0  0  0
  3  4  1  0  0  0  0
  4  5  2  0  0  0  0
  5  6  1  0  0  0  0
  6  7  1  0  0  0  0
  7  8  1  0  0  0  0
  4  9  1  0  0  0  0
  8  9  1  0  0  0  0
  1 11  1  0  0  0  0
  1 12  1  0  0  0  0
  1 13  1  0  0  0  0
  2 14  1  0  0  0  0
  2 15  1  0  0  0  0
  3 16  1  0  0  0  0
  3 17  1  0  0  0  0
  5 18  1  0  0  0  0
  6 19  1  0  0  0  0
  6 20  1  0  0  0  0
  7 21  1  0  0  0  0
  7 22  1  0  0  0  0
  8 23  1  0  0  0  0
  8 24  1  0  0  0  0
  9 25  1  0  0  0  0
  9 26  1  0  0  0  0
M  END
