 xtb: 6.5.1 (fef0646)
          01242310043D

 25 24  0     0  0            999 V2000
   -1.5101    1.8975    0.5435 N   0  0  0  0  0  0  0  0  0  0  0  0
   -0.4120    1.8335   -0.4578 C   0  0  0  0  0  0  0  0  0  0  0  0
    0.4289    0.5549   -0.3367 C   0  0  0  0  0  0  0  0  0  0  0  0
    1.1746    0.4677    1.0164 C   0  0  0  0  0  0  0  0  0  0  0  0
    1.9986   -0.8273    1.1234 C   0  0  0  0  0  0  0  0  0  0  0  0
    2.9900   -0.9522   -0.0459 C   0  0  0  0  0  0  0  0  0  0  0  0
    2.2603   -0.8701   -1.3977 C   0  0  0  0  0  0  0  0  0  0  0  0
    1.4396    0.4265   -1.5027 C   0  0  0  0  0  0  0  0  0  0  0  0
   -3.1720   -1.1461    0.3643 Cl  0  0  0  0  0  0  0  0  0  0  0  0
   -1.1426    1.9774    1.5044 H   0  0  0  0  0  0  0  0  0  0  0  0
   -2.0850    1.0365    0.5061 H   0  0  0  0  0  0  0  0  0  0  0  0
   -2.1384    2.7047    0.3847 H   0  0  0  0  0  0  0  0  0  0  0  0
    0.2396    2.7085   -0.3566 H   0  0  0  0  0  0  0  0  0  0  0  0
   -0.8349    1.8957   -1.4677 H   0  0  0  0  0  0  0  0  0  0  0  0
   -0.2556   -0.3070   -0.3920 H   0  0  0  0  0  0  0  0  0  0  0  0
    0.4668    0.5478    1.8511 H   0  0  0  0  0  0  0  0  0  0  0  0
    1.8366    1.3361    1.1099 H   0  0  0  0  0  0  0  0  0  0  0  0
    1.3200   -1.6899    1.1174 H   0  0  0  0  0  0  0  0  0  0  0  0
    2.5240   -0.8763    2.0877 H   0  0  0  0  0  0  0  0  0  0  0  0
    3.5686   -1.8836    0.0300 H   0  0  0  0  0  0  0  0  0  0  0  0
    3.7294   -0.1435    0.0172 H   0  0  0  0  0  0  0  0  0  0  0  0
    1.5902   -1.7330   -1.5017 H   0  0  0  0  0  0  0  0  0  0  0  0
    2.9716   -0.9504   -2.2317 H   0  0  0  0  0  0  0  0  0  0  0  0
    0.9177    0.4879   -2.4670 H   0  0  0  0  0  0  0  0  0  0  0  0
    2.1127    1.2911   -1.4802 H   0  0  0  0  0  0  0  0  0  0  0  0
  1  2  1  0  0  0  0
  2  3  1  0  0  0  0
  3  4  1  0  0  0  0
  4  5  1  0  0  0  0
  5  6  1  0  0  0  0
  6  7  1  0  0  0  0
  3  8  1  0  0  0  0
  7  8  1  0  0  0  0
  1 10  1  0  0  0  0
  1 11  1  0  0  0  0
  1 12  1  0  0  0  0
  2 13  1  0  0  0  0
  2 14  1  0  0  0  0
  3 15  1  0  0  0  0
  4 16  1  0  0  0  0
  4 17  1  0  0  0  0
  5 18  1  0  0  0  0
  5 19  1  0  0  0  0
  6 20  1  0  0  0  0
  6 21  1  0  0  0  0
  7 22  1  0  0  0  0
  7 23  1  0  0  0  0
  8 24  1  0  0  0  0
  8 25  1  0  0  0  0
M  END
