  41

 N          0.9300830789        0.0431182068       -0.0652926944
 C          2.4139755205        0.0565494442       -0.0563786341
 C          2.9384465434        0.7757831197        1.1809344619
 C          4.4664908648        0.7877676622        1.1997848869
 C          5.0081722285        1.5051140904        2.4345970607
 C          6.5346262662        1.5196460429        2.4616007518
 C          7.0774905630        2.2358165842        3.6960689484
 C          8.6039589165        2.2513559921        3.7254656473
 C          9.1464550663        2.9673784065        4.9600264054
 C         10.6729966529        2.9842204716        4.9916356347
 C         11.2121182013        3.7009257565        6.2272922272
 C         12.7384908661        3.7209587981        6.2643591906
 C         13.2658903318        4.4384049799        7.5013995789
 H          0.5745160814       -0.4394182336       -0.8984724960
 H          0.5687602567        1.0042995303       -0.0606398110
 H          0.5766411626       -0.4370418512        0.7708717135
 H          2.7728050838        0.5605730921       -0.9535633798
 H          2.7813796048       -0.9694464560       -0.0674712121
 H          2.5857784104        0.2785951942        2.0855821845
 H          2.5842664978        1.8074065520        1.1976490827
 H          4.8449905546        1.2877778171        0.3062836534
 H          4.8457639382       -0.2358239540        1.1912403063
 H          4.6435481159        1.0105515763        3.3376963864
 H          4.6445860270        2.5349854460        2.4516833655
 H          6.9121626459        2.0181980184        1.5657010713
 H          6.9109549269        0.4939790750        2.4505770901
 H          6.7081424194        1.7400824960        4.5970499124
 H          6.7096320882        3.2645848311        3.7119899213
 H          8.9798339311        2.7492838467        2.8283717882
 H          8.9783022681        1.2248505112        3.7132023190
 H          8.7749394721        2.4708687831        5.8597096661
 H          8.7764400284        3.9954096824        4.9748448571
 H         11.0487913449        3.4820661723        4.0944048099
 H         11.0472907074        1.9576486038        4.9792513036
 H         10.8384029713        3.2034860893        7.1255833000
 H         10.8398773331        4.7282040274        6.2405790230
 H         13.1150166712        4.2196991241        5.3682836100
 H         13.1135202039        2.6949487176        6.2532153429
 H         12.9196036552        5.4694680767        7.5207000941
 H         14.3532101423        4.4414478935        7.5087163467
 H         12.9179183570        3.9443557830        8.4059462858
