  41

 N          0.8580800000       -0.0171200000        0.0637500000
 C          2.3394400000       -0.0042200000        0.0799100000
 C          2.8529000000       -1.0929800000       -0.8485000000
 C          4.3787300000       -1.1147100000       -0.8637100000
 C          4.9038000000       -2.2061900000       -1.7941500000
 C          6.4300500000       -2.2214100000       -1.8073800000
 C          6.9584800000       -3.3101300000       -2.7367900000
 C          8.4846300000       -3.3217400000       -2.7478900000
 C          9.0136800000       -4.4109900000       -3.6762900000
 C         10.5400600000       -4.4259400000       -3.6893200000
 C         11.0649000000       -5.5172500000       -4.6199000000
 C         12.5914400000       -5.5404300000       -4.6398100000
 C         13.1112200000       -6.6258000000       -5.5671400000
 H          0.4754700000        0.7100400000        0.6831900000
 H          0.4832300000       -0.9197600000        0.3825900000
 H          0.4881900000        0.1590900000       -0.8798100000
 H          2.6488900000       -0.1702300000        1.1160500000
 H          2.6542700000        0.9921300000       -0.2438400000
 H          2.4769900000       -0.9245700000       -1.8654600000
 H          2.4739100000       -2.0701100000       -0.5239400000
 H          4.7564100000       -1.2850600000        0.1517000000
 H          4.7588600000       -0.1393500000       -1.1911700000
 H          4.5278600000       -2.0381400000       -2.8108000000
 H          4.5276900000       -3.1833100000       -1.4672100000
 H          6.8061500000       -2.3897500000       -0.7907300000
 H          6.8058900000       -1.2439000000       -2.1335400000
 H          6.5828700000       -3.1413900000       -3.7537400000
 H          6.5839800000       -4.2879800000       -2.4101400000
 H          8.8601100000       -3.4886700000       -1.7308200000
 H          8.8587500000       -2.3439000000       -3.0746600000
 H          8.6373800000       -4.2430800000       -4.6928900000
 H          8.6375500000       -5.3881400000       -3.3495200000
 H         10.9161200000       -4.5945000000       -2.6729100000
 H         10.9160400000       -3.4490300000       -4.0162200000
 H         10.6851700000       -5.3478000000       -5.6350700000
 H         10.6852300000       -6.4930100000       -4.2923300000
 H         12.9750800000       -5.7149700000       -3.6275600000
 H         12.9749400000       -4.5677000000       -4.9704100000
 H         12.7664100000       -7.6132300000       -5.2438300000
 H         14.2046100000       -6.6302400000       -5.5712900000
 H         12.7656800000       -6.4615100000       -6.5927800000
