 xtb: 6.5.1 (fef0646)
          01242314563D

 22 21  0     0  0            999 V2000
    1.1697   -0.3150    0.0293 N   0  0  0  0  0  0  0  0  0  0  0  0
    2.6423   -0.3050    0.0230 C   0  0  0  0  0  0  0  0  0  0  0  0
    3.1232    0.8756    0.8753 C   0  0  0  0  0  0  0  0  0  0  0  0
    4.5980    1.1071    0.7642 C   0  0  0  0  0  0  0  0  0  0  0  0
    5.1730    1.6023   -0.4050 C   0  0  0  0  0  0  0  0  0  0  0  0
    4.3936    1.8543   -1.4639 F   0  0  0  0  0  0  0  0  0  0  0  0
    6.5359    1.8484   -0.5143 C   0  0  0  0  0  0  0  0  0  0  0  0
    7.0483    2.3323   -1.6555 F   0  0  0  0  0  0  0  0  0  0  0  0
    7.3727    1.5952    0.5665 C   0  0  0  0  0  0  0  0  0  0  0  0
    8.6878    1.8323    0.4734 F   0  0  0  0  0  0  0  0  0  0  0  0
    6.8309    1.0960    1.7439 C   0  0  0  0  0  0  0  0  0  0  0  0
    7.6258    0.8458    2.7942 F   0  0  0  0  0  0  0  0  0  0  0  0
    5.4636    0.8584    1.8262 C   0  0  0  0  0  0  0  0  0  0  0  0
    4.9693    0.3754    2.9746 F   0  0  0  0  0  0  0  0  0  0  0  0
    0.3516    2.5161   -0.7410 Cl  0  0  0  0  0  0  0  0  0  0  0  0
    0.7955   -1.0217   -0.6076 H   0  0  0  0  0  0  0  0  0  0  0  0
    0.8189    0.6297   -0.2834 H   0  0  0  0  0  0  0  0  0  0  0  0
    0.8049   -0.4706    0.9723 H   0  0  0  0  0  0  0  0  0  0  0  0
    2.9843   -0.1753   -1.0030 H   0  0  0  0  0  0  0  0  0  0  0  0
    3.0253   -1.2451    0.4214 H   0  0  0  0  0  0  0  0  0  0  0  0
    2.8675    0.7146    1.9210 H   0  0  0  0  0  0  0  0  0  0  0  0
    2.5983    1.7652    0.5153 H   0  0  0  0  0  0  0  0  0  0  0  0
  1  2  1  0  0  0  0
  2  3  1  0  0  0  0
  3  4  1  0  0  0  0
  4  5  4  0  0  0  0
  5  6  1  0  0  0  0
  5  7  4  0  0  0  0
  7  8  1  0  0  0  0
  7  9  4  0  0  0  0
  9 10  1  0  0  0  0
  9 11  4  0  0  0  0
 11 12  1  0  0  0  0
  4 13  4  0  0  0  0
 11 13  4  0  0  0  0
 13 14  1  0  0  0  0
  1 16  1  0  0  0  0
  1 17  1  0  0  0  0
  1 18  1  0  0  0  0
  2 19  1  0  0  0  0
  2 20  1  0  0  0  0
  3 21  1  0  0  0  0
  3 22  1  0  0  0  0
M  END
