  12

 N         -1.4821226404       -0.9371619307       -0.1794460871
 C         -1.1851103040        0.4243433189        0.3632165403
 C          0.0809298568        1.0483992426       -0.2341912979
 C          1.2330059261        0.2600566588       -0.0182588636
 N          2.1477380861       -0.4234075078        0.1654158677
 H         -2.3389500415       -1.3337173754        0.2356313241
 H         -0.7096443315       -1.5911137098        0.0188466595
 H         -1.6152980990       -0.9124269035       -1.2010523643
 H         -1.0730653398        0.3492414588        1.4550391786
 H         -2.0530620748        1.0777863935        0.1907339921
 H          0.2572832405        2.0489548265        0.1860396668
 H         -0.0445325619        1.1922683323       -1.3154874636
          12
        -15.33643117
 N         -1.6095535451       -0.8370364608       -0.1526071643
 C         -1.1860905607        0.4981579075        0.3706111183
 C          0.1196607551        1.0029759933       -0.2533568953
 C          1.2017092596        0.1176736138       -0.0504755189
 N          2.0564246234       -0.6422929852        0.1214590745
 H         -1.7725710375       -0.8061651993       -1.1697083946
 H         -2.4827786316       -1.1613699287        0.2922546094
 H         -0.8869766196       -1.5503543828        0.0260082816
 H         -1.0629052390        0.4238850102        1.4613472401
 H         -1.9966050068        1.2234092797        0.2054554156
 H          0.3915859940        1.9868451028        0.1551589764
 H         -0.0119844572        1.1507673753       -1.3334460456
