  12

 N          0.9229755153       -0.0249171243       -0.0113177895
 C          2.4161357649       -0.0882961490       -0.0678798011
 C          2.9289930314       -1.1491528377        0.9074782117
 C          2.3453612178       -0.9119216794        2.2108154290
 N          1.7897583670       -0.6679156247        3.1772920952
 H          0.5557782749        0.7498400987       -0.5791203936
 H          0.6331437028        0.1122040344        0.9734155761
 H          0.5034843752       -0.9042210411       -0.3446452557
 H          2.8079745801        0.8928888545        0.2085774095
 H          2.7293887117       -0.3206981779       -1.0865274878
 H          4.0167676770       -1.0903710510        0.9840745715
 H          2.6705187819       -2.1606793025        0.5828774348
