28
 xtb: 6.5.1 (fef0646)
N           -2.17688946947665       -1.89363539505589       -0.61988756798364
C           -0.79288645124263       -1.32754694221762       -0.67308755098123
C           -0.37557324129742       -0.67362542251299        0.63853760732167
C            1.06267748736748       -0.11848156582559        0.63552220591598
C            1.25946280361275        1.03474454392519       -0.37594274520280
C            2.67788772804165        1.62335872859265       -0.27528415995542
C            3.74438218199726        0.53348888820643       -0.48936791167557
C            3.55077829705015       -0.63584168788609        0.49335378381187
C            2.12782925869280       -1.21257229380153        0.38962281198021
Cl          -4.21056238626452        1.26577235013354        0.19363664258401
H           -2.53558832490449       -2.22109032031085       -1.48527903081003
H           -2.86796459270782       -1.01164981726689       -0.39161079353961
H           -2.34850947628021       -2.49094880452672        0.14788926711370
H           -0.71805329226887       -0.59223250739270       -1.48434389954463
H           -0.15770131623067       -2.14215778825256       -0.91178595686485
H           -0.48495819769034       -1.39322491505837        1.45805751881666
H           -1.07332442326905        0.14780184281778        0.89915008300329
H            1.27215396354818        0.30324938974862        1.63637399793597
H            0.49513001853154        1.81297488701437       -0.22338566838592
H            1.09694917141746        0.65797202643309       -1.38676308054446
H            2.81857206831304        2.07462460753158        0.71621409478944
H            2.81194816229977        2.44645254409100       -0.99012745788501
H            4.75416312843663        0.94947003195753       -0.40048396879208
H            3.67352778582080        0.15860868090497       -1.52122127694478
H            3.72528187612724       -0.29158924047393        1.51226119744857
H            4.29409512442509       -1.42567295862804        0.31232691059921
H            1.97462449748089       -2.05124817270951        1.07742205258430
H            1.97274049366536       -1.62807861975685       -0.61688110077192
