 xtb: 6.5.1 (fef0646)
          01242317083D

 28 27  0     0  0            999 V2000
   -2.2522   -1.7561   -0.5918 N   0  0  0  0  0  0  0  0  0  0  0  0
   -0.8327   -1.2984   -0.6550 C   0  0  0  0  0  0  0  0  0  0  0  0
   -0.3812   -0.6579    0.6519 C   0  0  0  0  0  0  0  0  0  0  0  0
    1.0604   -0.1134    0.6384 C   0  0  0  0  0  0  0  0  0  0  0  0
    1.2588    1.0410   -0.3715 C   0  0  0  0  0  0  0  0  0  0  0  0
    2.6796    1.6240   -0.2735 C   0  0  0  0  0  0  0  0  0  0  0  0
    3.7413    0.5304   -0.4927 C   0  0  0  0  0  0  0  0  0  0  0  0
    3.5442   -0.6421    0.4856 C   0  0  0  0  0  0  0  0  0  0  0  0
    2.1182   -1.2122    0.3839 C   0  0  0  0  0  0  0  0  0  0  0  0
   -4.1070    1.1269    0.1553 Cl  0  0  0  0  0  0  0  0  0  0  0  0
   -2.5646   -2.1803   -1.4762 H   0  0  0  0  0  0  0  0  0  0  0  0
   -2.8761   -0.9579   -0.3840 H   0  0  0  0  0  0  0  0  0  0  0  0
   -2.3817   -2.4497    0.1568 H   0  0  0  0  0  0  0  0  0  0  0  0
   -0.7166   -0.5879   -1.4810 H   0  0  0  0  0  0  0  0  0  0  0  0
   -0.1840   -2.1457   -0.9042 H   0  0  0  0  0  0  0  0  0  0  0  0
   -0.4862   -1.3894    1.4613 H   0  0  0  0  0  0  0  0  0  0  0  0
   -1.0718    0.1539    0.9066 H   0  0  0  0  0  0  0  0  0  0  0  0
    1.2742    0.3037    1.6371 H   0  0  0  0  0  0  0  0  0  0  0  0
    0.4959    1.8156   -0.2211 H   0  0  0  0  0  0  0  0  0  0  0  0
    1.0954    0.6606   -1.3855 H   0  0  0  0  0  0  0  0  0  0  0  0
    2.8203    2.0740    0.7169 H   0  0  0  0  0  0  0  0  0  0  0  0
    2.8130    2.4470   -0.9892 H   0  0  0  0  0  0  0  0  0  0  0  0
    4.7538    0.9473   -0.4014 H   0  0  0  0  0  0  0  0  0  0  0  0
    3.6717    0.1589   -1.5226 H   0  0  0  0  0  0  0  0  0  0  0  0
    3.7245   -0.2948    1.5103 H   0  0  0  0  0  0  0  0  0  0  0  0
    4.2912   -1.4282    0.3087 H   0  0  0  0  0  0  0  0  0  0  0  0
    1.9713   -2.0515    1.0751 H   0  0  0  0  0  0  0  0  0  0  0  0
    1.9672   -1.6267   -0.6187 H   0  0  0  0  0  0  0  0  0  0  0  0
  1  2  1  0  0  0  0
  2  3  1  0  0  0  0
  3  4  1  0  0  0  0
  4  5  1  0  0  0  0
  5  6  1  0  0  0  0
  6  7  1  0  0  0  0
  7  8  1  0  0  0  0
  4  9  1  0  0  0  0
  8  9  1  0  0  0  0
  1 11  1  0  0  0  0
  1 12  1  0  0  0  0
  1 13  1  0  0  0  0
  2 14  1  0  0  0  0
  2 15  1  0  0  0  0
  3 16  1  0  0  0  0
  3 17  1  0  0  0  0
  4 18  1  0  0  0  0
  5 19  1  0  0  0  0
  5 20  1  0  0  0  0
  6 21  1  0  0  0  0
  6 22  1  0  0  0  0
  7 23  1  0  0  0  0
  7 24  1  0  0  0  0
  8 25  1  0  0  0  0
  8 26  1  0  0  0  0
  9 27  1  0  0  0  0
  9 28  1  0  0  0  0
M  END
