 xtb: 6.5.1 (fef0646)
          01242317113D

 29 28  0     0  0            999 V2000
   -2.8697   -1.6292    0.6135 N   0  0  0  0  0  0  0  0  0  0  0  0
   -3.1694   -0.4575   -0.2619 C   0  0  0  0  0  0  0  0  0  0  0  0
   -1.9207    0.3106   -0.6876 C   0  0  0  0  0  0  0  0  0  0  0  0
   -1.2184    1.0206    0.4709 C   0  0  0  0  0  0  0  0  0  0  0  0
   -0.0554    1.9162    0.0302 C   0  0  0  0  0  0  0  0  0  0  0  0
    1.0977    1.1727   -0.6510 C   0  0  0  0  0  0  0  0  0  0  0  0
    1.8076    0.1687    0.2588 C   0  0  0  0  0  0  0  0  0  0  0  0
    2.9892   -0.5260   -0.4214 C   0  0  0  0  0  0  0  0  0  0  0  0
    3.6908   -1.5260    0.4862 C   0  0  0  0  0  0  0  0  0  0  0  0
   -2.4285   -1.3335    1.4913 H   0  0  0  0  0  0  0  0  0  0  0  0
   -2.2302   -2.2791    0.1432 H   0  0  0  0  0  0  0  0  0  0  0  0
   -3.7235   -2.1453    0.8536 H   0  0  0  0  0  0  0  0  0  0  0  0
   -3.8583    0.2171    0.2584 H   0  0  0  0  0  0  0  0  0  0  0  0
   -3.7130   -0.8092   -1.1471 H   0  0  0  0  0  0  0  0  0  0  0  0
   -2.1820    1.0511   -1.4526 H   0  0  0  0  0  0  0  0  0  0  0  0
   -1.2251   -0.3785   -1.1766 H   0  0  0  0  0  0  0  0  0  0  0  0
   -0.8622    0.2823    1.1956 H   0  0  0  0  0  0  0  0  0  0  0  0
   -1.9564    1.6199    1.0173 H   0  0  0  0  0  0  0  0  0  0  0  0
    0.3382    2.4605    0.8968 H   0  0  0  0  0  0  0  0  0  0  0  0
   -0.4417    2.6900   -0.6438 H   0  0  0  0  0  0  0  0  0  0  0  0
    1.8345    1.8951   -1.0224 H   0  0  0  0  0  0  0  0  0  0  0  0
    0.7325    0.6591   -1.5466 H   0  0  0  0  0  0  0  0  0  0  0  0
    1.0967   -0.5875    0.6071 H   0  0  0  0  0  0  0  0  0  0  0  0
    2.1539    0.6769    1.1655 H   0  0  0  0  0  0  0  0  0  0  0  0
    3.7031    0.2305   -0.7688 H   0  0  0  0  0  0  0  0  0  0  0  0
    2.6387   -1.0272   -1.3317 H   0  0  0  0  0  0  0  0  0  0  0  0
    3.0056   -2.3082    0.8145 H   0  0  0  0  0  0  0  0  0  0  0  0
    4.0794   -1.0399    1.3816 H   0  0  0  0  0  0  0  0  0  0  0  0
    4.5296   -2.0125   -0.0141 H   0  0  0  0  0  0  0  0  0  0  0  0
  1  2  1  0  0  0  0
  2  3  1  0  0  0  0
  3  4  1  0  0  0  0
  4  5  1  0  0  0  0
  5  6  1  0  0  0  0
  6  7  1  0  0  0  0
  7  8  1  0  0  0  0
  8  9  1  0  0  0  0
  1 10  1  0  0  0  0
  1 11  1  0  0  0  0
  1 12  1  0  0  0  0
  2 13  1  0  0  0  0
  2 14  1  0  0  0  0
  3 15  1  0  0  0  0
  3 16  1  0  0  0  0
  4 17  1  0  0  0  0
  4 18  1  0  0  0  0
  5 19  1  0  0  0  0
  5 20  1  0  0  0  0
  6 21  1  0  0  0  0
  6 22  1  0  0  0  0
  7 23  1  0  0  0  0
  7 24  1  0  0  0  0
  8 25  1  0  0  0  0
  8 26  1  0  0  0  0
  9 27  1  0  0  0  0
  9 28  1  0  0  0  0
  9 29  1  0  0  0  0
M  CHG  1   1   1
M  END
