  17

 N          0.9733234524        0.0656756156       -0.0789046923
 C          2.4688268777        0.0276992031       -0.0577893421
 C          3.0151742920        1.2470193631       -0.7839147587
 C          4.5429910504        1.2848588356       -0.8071259060
 C          4.9841554262        2.5493503244       -1.5602314353
 O          6.2948248016        2.7268817307       -1.6698275113
 O          4.1930653352        3.3166675679       -2.0199057795
 H          0.5632196104       -0.7442983186        0.4032088403
 H          0.6405427051        0.0775156203       -1.0530929285
 H          0.6419204750        0.9275956883        0.3762789999
 H          2.7988535052       -0.8926229208       -0.5424890842
 H          2.8003268274        0.0144478233        0.9818159358
 H          2.6663129457        2.1639828286       -0.3050717369
 H          2.6654539746        1.2635591053       -1.8179697813
 H          4.9477247262        0.4079893241       -1.3170385735
 H          4.9482325877        1.3164051834        0.2064616836
 H          6.8406314072        2.0420930257       -1.2608939301
