21
 xtb: 6.5.1 (fef0646)
N           -0.97090722013170       -0.34540825848039        0.58198782882861
C           -0.07951183359549       -0.31713229240469       -0.61782112020627
C            1.39949968944401       -0.55748064368667       -0.31062288588854
C            2.05848727846830        0.57969817834660        0.47127480556123
C            3.54585559652559        0.34832862411036        0.76381585549762
C            4.42084300972204        0.35982273648716       -0.48206451371773
Cl          -4.06508438412818       -0.01405169879646       -0.18180866731172
H           -0.65027989456532        0.39432600246209        1.27312541985451
H           -0.78460262382912       -1.25432300488673        1.11730913044722
H           -1.90730124839465       -0.25642748585326        0.39098168778998
H           -0.18016307949908        0.63809547495936       -1.11671470101227
H           -0.41439586022545       -1.07898612788560       -1.31757281164850
H            1.97457221240898       -0.69780147040900       -1.26446204012214
H            1.55638713291966       -1.49693129528377        0.22582446640883
H            1.53706534515051        0.72273999683640        1.41012408915712
H            1.95933810315979        1.52259427101851       -0.07766953916176
H            3.68982344819050       -0.59968147478845        1.29777024299624
H            3.92777886481477        1.11810378682111        1.46590069918442
H            4.33247670942823        1.29601128896484       -1.03520442770342
H            4.18004435296461       -0.44906815456765       -1.16470893972640
H            5.50244005255936        0.24722334429945       -0.24133687867212
