 xtb: 6.5.1 (fef0646)
          01242317103D

 21 19  0     0  0            999 V2000
   -0.8732   -0.3683    0.6303 N   0  0  0  0  0  0  0  0  0  0  0  0
   -0.0370   -0.3278   -0.6049 C   0  0  0  0  0  0  0  0  0  0  0  0
    1.4468   -0.5541   -0.3256 C   0  0  0  0  0  0  0  0  0  0  0  0
    2.0932    0.5808    0.4691 C   0  0  0  0  0  0  0  0  0  0  0  0
    3.5797    0.3536    0.7642 C   0  0  0  0  0  0  0  0  0  0  0  0
    4.4521    0.3615   -0.4830 C   0  0  0  0  0  0  0  0  0  0  0  0
   -4.2716    0.0027   -0.2166 Cl  0  0  0  0  0  0  0  0  0  0  0  0
   -0.6169    0.3878    1.2842 H   0  0  0  0  0  0  0  0  0  0  0  0
   -0.7517   -1.2613    1.1276 H   0  0  0  0  0  0  0  0  0  0  0  0
   -1.8782   -0.2633    0.4151 H   0  0  0  0  0  0  0  0  0  0  0  0
   -0.1743    0.6351   -1.1110 H   0  0  0  0  0  0  0  0  0  0  0  0
   -0.4058   -1.0827   -1.3111 H   0  0  0  0  0  0  0  0  0  0  0  0
    1.9859   -0.6902   -1.2709 H   0  0  0  0  0  0  0  0  0  0  0  0
    1.5758   -1.4979    0.2167 H   0  0  0  0  0  0  0  0  0  0  0  0
    1.5466    0.7200    1.4097 H   0  0  0  0  0  0  0  0  0  0  0  0
    1.9684    1.5240   -0.0760 H   0  0  0  0  0  0  0  0  0  0  0  0
    3.7001   -0.5976    1.2988 H   0  0  0  0  0  0  0  0  0  0  0  0
    3.9373    1.1205    1.4651 H   0  0  0  0  0  0  0  0  0  0  0  0
    4.3397    1.2953   -1.0372 H   0  0  0  0  0  0  0  0  0  0  0  0
    4.1903   -0.4504   -1.1632 H   0  0  0  0  0  0  0  0  0  0  0  0
    5.5118    0.2501   -0.2420 H   0  0  0  0  0  0  0  0  0  0  0  0
  1  2  1  0  0  0  0
  2  3  1  0  0  0  0
  3  4  1  0  0  0  0
  4  5  1  0  0  0  0
  5  6  1  0  0  0  0
  1  8  1  0  0  0  0
  1  9  1  0  0  0  0
  1 10  1  0  0  0  0
  2 11  1  0  0  0  0
  2 12  1  0  0  0  0
  3 13  1  0  0  0  0
  3 14  1  0  0  0  0
  4 15  1  0  0  0  0
  4 16  1  0  0  0  0
  5 17  1  0  0  0  0
  5 18  1  0  0  0  0
  6 19  1  0  0  0  0
  6 20  1  0  0  0  0
  6 21  1  0  0  0  0
M  END
