 xtb: 6.5.1 (fef0646)
          01242310053D

 22 21  0     0  0            999 V2000
   -3.0459   -0.6526   -0.6251 N   0  0  0  0  0  0  0  0  0  0  0  0
   -3.1063    0.7822   -0.2392 C   0  0  0  0  0  0  0  0  0  0  0  0
   -2.2400    1.0903    0.9769 C   0  0  0  0  0  0  0  0  0  0  0  0
   -0.8219    0.6893    0.7817 C   0  0  0  0  0  0  0  0  0  0  0  0
   -0.4194   -0.6029    1.0916 C   0  0  0  0  0  0  0  0  0  0  0  0
   -1.3270   -1.5019    1.5127 F   0  0  0  0  0  0  0  0  0  0  0  0
    0.8981   -0.9892    0.8932 C   0  0  0  0  0  0  0  0  0  0  0  0
    1.2800   -2.2426    1.1841 F   0  0  0  0  0  0  0  0  0  0  0  0
    1.8101   -0.0907    0.3624 C   0  0  0  0  0  0  0  0  0  0  0  0
    3.0823   -0.4675    0.1601 F   0  0  0  0  0  0  0  0  0  0  0  0
    1.4036    1.1887    0.0183 C   0  0  0  0  0  0  0  0  0  0  0  0
    2.2786    2.0473   -0.5285 F   0  0  0  0  0  0  0  0  0  0  0  0
    0.0867    1.5760    0.2204 C   0  0  0  0  0  0  0  0  0  0  0  0
   -0.3210    2.7981   -0.1650 F   0  0  0  0  0  0  0  0  0  0  0  0
   -0.0688   -1.3766   -2.2971 Cl  0  0  0  0  0  0  0  0  0  0  0  0
   -3.7610   -0.9012   -1.3251 H   0  0  0  0  0  0  0  0  0  0  0  0
   -3.1753   -1.2595    0.1999 H   0  0  0  0  0  0  0  0  0  0  0  0
   -2.1228   -0.8883   -1.0280 H   0  0  0  0  0  0  0  0  0  0  0  0
   -4.1480    1.0651   -0.0412 H   0  0  0  0  0  0  0  0  0  0  0  0
   -2.7826    1.3970   -1.0885 H   0  0  0  0  0  0  0  0  0  0  0  0
   -2.6305    0.5613    1.8538 H   0  0  0  0  0  0  0  0  0  0  0  0
   -2.2762    2.1592    1.2196 H   0  0  0  0  0  0  0  0  0  0  0  0
  1  2  1  0  0  0  0
  2  3  1  0  0  0  0
  3  4  1  0  0  0  0
  4  5  4  0  0  0  0
  5  6  1  0  0  0  0
  5  7  4  0  0  0  0
  7  8  1  0  0  0  0
  7  9  4  0  0  0  0
  9 10  1  0  0  0  0
  9 11  4  0  0  0  0
 11 12  1  0  0  0  0
  4 13  4  0  0  0  0
 11 13  4  0  0  0  0
 13 14  1  0  0  0  0
  1 16  1  0  0  0  0
  1 17  1  0  0  0  0
  1 18  1  0  0  0  0
  2 19  1  0  0  0  0
  2 20  1  0  0  0  0
  3 21  1  0  0  0  0
  3 22  1  0  0  0  0
M  END
