34
2.018
N            4.66420   1.01721  -0.48989
C            3.42143   0.26594  -0.15213
C            2.22140   1.18374   0.05177
C            0.96698   0.43308   0.38877
C            0.14765  -0.06032  -0.61694
C           -0.98591  -0.77923  -0.31199
C            0.62925   0.17315   1.70986
C           -0.50463  -0.54405   2.01960
C           -1.33353  -1.02785   1.01195
N           -2.49456  -1.73625   1.32458
N           -3.62770  -1.42358   0.91150
C           -3.89818  -0.25029   0.20559
C           -3.54420   0.99093   0.72710
C           -3.78753   2.14524   0.01679
C           -4.39235   2.08012  -1.22359
C           -4.75451   0.85568  -1.75100
C           -4.51129  -0.30079  -1.04347
Cl           7.33926  -1.24328  -0.95586
H            4.91064   1.67653   0.25976
H            4.54150   1.56057  -1.35430
H            5.46905   0.38105  -0.62852
H            3.58404  -0.33321   0.75139
H            3.19966  -0.45871  -0.94411
H            2.05588   1.78397  -0.84912
H            2.43814   1.90781   0.84386
H            0.40909   0.12478  -1.64504
H           -1.62329  -1.15339  -1.09393
H            1.26747   0.53930   2.49621
H           -0.76857  -0.73595   3.04499
H           -3.06854   1.03091   1.69150
H           -3.50384   3.10020   0.42838
H           -4.58177   2.98402  -1.77927
H           -5.22685   0.80491  -2.71853
H           -4.78420  -1.25942  -1.44907
