34
2.528
N           -1.89084  -1.21710   1.62363
C           -2.76915  -0.05496   1.94881
C           -3.00288   0.84955   0.74021
C           -1.71747   1.29972   0.11429
C           -1.14824   0.56426  -0.91602
C            0.09533   0.89098  -1.40867
C           -1.01976   2.38516   0.62742
C            0.22683   2.71403   0.13957
C            0.80960   1.95654  -0.87130
N            2.15138   2.14031  -1.21632
N            3.01547   1.30054  -0.91802
C            2.71927   0.16726  -0.15136
C            2.76928  -1.10378  -0.71656
C            2.37413  -2.20756   0.00931
C            1.92496  -2.05967   1.30794
C            1.87610  -0.80429   1.88268
C            2.27249   0.30053   1.15989
Cl          -2.86799  -2.46318  -1.48995
H           -1.86965  -1.91639   2.38420
H           -0.91332  -0.92308   1.45014
H           -2.21906  -1.69063   0.76667
H           -2.31346   0.52095   2.76225
H           -3.72881  -0.41548   2.34173
H           -3.60010   1.72546   1.01908
H           -3.59595   0.31612  -0.01072
H           -1.66983  -0.29908  -1.29638
H            0.55659   0.29444  -2.17763
H           -1.45005   2.95105   1.43719
H            0.78777   3.52937   0.56526
H            3.10432  -1.20437  -1.73520
H            2.41243  -3.18791  -0.43907
H            1.61697  -2.92471   1.87402
H            1.53312  -0.68792   2.89901
H            2.22864   1.28563   1.59285
