34
0.196
N            4.16095  -1.40265  -0.05080
C            3.70290  -1.15202  -1.44695
C            2.66825  -0.03108  -1.51932
C            1.47422  -0.28383  -0.64907
C            0.41762  -1.06085  -1.10196
C           -0.66431  -1.31742  -0.29043
C            1.42730   0.21496   0.64514
C            0.34716  -0.03748   1.45982
C           -0.72015  -0.80356   1.00134
N           -1.82803  -1.03832   1.81669
N           -3.00050  -0.78202   1.48188
C           -3.34221  -0.10010   0.31295
C           -2.78473   1.14252   0.02465
C           -3.10465   1.80136  -1.14142
C           -3.99022   1.23327  -2.03672
C           -4.55613   0.00355  -1.76094
C           -4.23692  -0.65852  -0.59606
Cl           4.54229   1.75700   1.47716
H            4.94767  -2.06495  -0.00799
H            3.39442  -1.78312   0.52031
H            4.45585  -0.51751   0.39457
H            3.27999  -2.07522  -1.85992
H            4.56555  -0.91165  -2.08021
H            2.33658   0.12218  -2.55279
H            3.13145   0.91478  -1.21907
H            0.45218  -1.46357  -2.10004
H           -1.48644  -1.91308  -0.64682
H            2.25570   0.79860   1.01071
H            0.31094   0.35728   2.46018
H           -2.09219   1.57488   0.72560
H           -2.66210   2.76041  -1.35635
H           -4.23983   1.74936  -2.94943
H           -5.24755  -0.43940  -2.45917
H           -4.66889  -1.61906  -0.37529
