34
1.656
N            4.50605   0.22296  -0.44347
C            4.14128  -0.92636  -1.31884
C            2.76358  -0.76047  -1.95584
C            1.65363  -0.68284  -0.95044
C            1.03495   0.52638  -0.66401
C            0.01507   0.59409   0.25797
C            1.23397  -1.82053  -0.27557
C            0.21428  -1.75766   0.64755
C           -0.41741  -0.54877   0.92297
N           -1.47789  -0.48983   1.82811
N           -2.59756  -0.02019   1.54853
C           -2.97218   0.37319   0.26266
C           -3.43156   1.66574   0.02283
C           -3.77468   2.06142  -1.25097
C           -3.66725   1.17468  -2.30503
C           -3.21740  -0.11197  -2.08074
C           -2.87472  -0.51095  -0.80798
Cl           2.59820   0.37789   2.51731
H            3.86068   0.29465   0.35786
H            4.45574   1.11017  -0.96171
H            5.46152   0.13038  -0.06412
H            4.16732  -1.85175  -0.73195
H            4.90500  -1.04811  -2.09668
H            2.55842  -1.58678  -2.64649
H            2.75334   0.14381  -2.57302
H            1.35719   1.41700  -1.17611
H           -0.46907   1.53113   0.47071
H            1.71314  -2.76152  -0.48671
H           -0.11492  -2.64388   1.16139
H           -3.50614   2.35142   0.84887
H           -4.12597   3.06533  -1.42608
H           -3.93435   1.48649  -3.30159
H           -3.13217  -0.80392  -2.90272
H           -2.51764  -1.50925  -0.62450
