34
 xtb: 6.5.1 (fef0646)
N           -2.21876197440794       -1.39808970550808       -0.97705054133958
C           -3.15472636875017       -0.27534137496987       -1.27594178385501
C           -3.12812248860752        0.79631664164978       -0.18727724464138
C           -1.74129630695926        1.30167425999106        0.07379920952558
C           -1.18427185763804        2.29290268164178       -0.72306472675699
C            0.13377066124851        2.66520559159518       -0.56431794102142
C           -0.95218196412127        0.70332530407478        1.04651143594050
C            0.36340310525596        1.07424816780618        1.21116007761971
C            0.92949364464671        2.04681006320342        0.39494828741420
N            2.30906415311553        2.26688423843339        0.43022978235575
N            3.11480611248711        1.38724974864264        0.09159026860121
C            2.70230563490507        0.15451098754645       -0.42912296601593
C            2.89041193977061       -1.01974429337195        0.29472914813416
C            2.39744127844140       -2.21765632436339       -0.17821779982849
C            1.71172164394855       -2.26065152710042       -1.37842828732368
C            1.52157616801278       -1.10263572999845       -2.10751183628131
C            2.01377166827796        0.09627051606600       -1.63728420435318
Cl          -2.46832301561812       -2.20574750567872        2.31855717375751
H           -2.32335589649857       -2.18170102457527       -1.67018496687447
H           -2.32370989635176       -1.74396909481791       -0.05310023929090
H           -1.21114583876771       -1.08632157317369       -1.09806689514147
H           -4.15456059294416       -0.66425807283015       -1.42465171197320
H           -2.87862298127616        0.18990292187776       -2.26110333507049
H           -3.52896155069817        0.36662788922262        0.72682828631372
H           -3.77765839688029        1.62934453458187       -0.45233280998675
H           -1.78696166355495        2.75982334598743       -1.48360880201885
H            0.57599564227285        3.42063923685117       -1.19505333391664
H           -1.36108719754244       -0.10031921742629        1.63408234148242
H            0.99163167673739        0.57781730394628        1.93318303888349
H            3.44535411178916       -0.97184404554132        1.21654474533434
H            2.56146873690020       -3.12376740817007        0.39136019501276
H            1.29477275498663       -3.20139932244421       -1.71669430279948
H            0.92897960760483       -1.13839792498255       -3.00867746361119
H            1.81771817404204        1.00571585708177       -2.17228848494543
