  22

 N          1.5345770266       -1.4228432984       -0.4715925438
 C          0.3826477260       -1.5886957325        0.4714802786
 C         -0.2086550058       -2.9906539427        0.3811278189
 C         -0.6553531710       -0.5169841299        0.2354963388
 C         -0.9365884907        0.4208495507        1.2192031760
 C         -1.8679158234        1.4161493862        0.9988204779
 C         -2.5300364798        1.4876607190       -0.2099867169
 C         -2.2580327312        0.5625601222       -1.1973932787
 C         -1.3258409767       -0.4317570566       -0.9753254285
 Cl         2.3925499379        1.9705797706       -0.2712040600
 H          1.8950744451       -0.4538361548       -0.4323816389
 H          1.2349159214       -1.6020357268       -1.4388098370
 H          2.3047892614       -2.0696121780       -0.2528837392
 H          0.7719248992       -1.4460333718        1.4926971640
 H         -0.5936408401       -3.1839005043       -0.6194389518
 H         -1.0346294645       -3.1200173811        1.0814089729
 H          0.5396646207       -3.7541476050        0.5953953582
 H         -0.4170672842        0.3691994471        2.1614162715
 H         -2.0768026236        2.1390319837        1.7711540075
 H         -3.2568768057        2.2650914681       -0.3831401221
 H         -2.7721967672        0.6173859396       -2.1435570815
 H         -1.1108502350       -1.1492884132       -1.7487840078
          22
        -30.74241961
 N          1.1207569991       -1.5636962433        1.1186029246
 C          0.0470460365       -1.7545960253        0.0906160980
 C          0.6486671703       -2.0222903973       -1.2836585386
 C         -0.8999694689       -0.5781028330        0.0593975552
 C         -2.2722719299       -0.7769779334        0.1181353138
 C         -3.1425122656        0.2941307469        0.0720901029
 C         -2.6513372875        1.5793280133       -0.0361969913
 C         -1.2890426763        1.7901243650       -0.1007039656
 C         -0.4207675610        0.7177693714       -0.0553304749
 Cl         3.0637825392        1.1273522062       -0.0434529295
 H          1.7326145994       -0.7766167632        0.8474320655
 H          1.7122163213       -2.4010081946        1.2080684619
 H          0.7184382897       -1.3476348422        2.0402540777
 H         -0.5394165042       -2.6379315189        0.3913849371
 H          1.2378215374       -1.1681288160       -1.6161154350
 H         -0.1267529808       -2.1969269361       -2.0304017493
 H          1.3076530962       -2.8907513532       -1.2694532334
 H         -2.6568201827       -1.7800714666        0.1973887180
 H         -4.2065832767        0.1260921117        0.1193480263
 H         -3.3301236096        2.4163859105       -0.0720018482
 H         -0.9022502802        2.7927930114       -0.1881385700
 H          0.6417022822        0.8845742056       -0.1110434632
