34
1.724
N            3.22301   0.37656  -0.89438
C            3.35401   0.28256   0.58649
C            3.05526  -1.12203   1.10499
C            1.63600  -1.53883   0.85830
C            1.30136  -2.31319  -0.24406
C           -0.00767  -2.66241  -0.48942
C            0.62177  -1.11668   1.70630
C           -0.68783  -1.46730   1.46741
C           -1.02473  -2.24212   0.36244
N           -2.35262  -2.58632   0.10700
N           -3.28746  -1.76401   0.05702
C           -3.10937  -0.38026   0.10030
C           -3.75843   0.38753   1.06386
C           -3.56553   1.75004   1.11966
C           -2.72544   2.36884   0.21404
C           -2.07955   1.62015  -0.75055
C           -2.27008   0.25739  -0.80867
Cl           3.79190   3.67260  -1.96408
H            3.39529   1.33613  -1.23597
H            2.27736   0.10313  -1.19449
H            3.89200  -0.25189  -1.36643
H            2.67125   0.99895   1.05801
H            4.36265   0.59459   0.88344
H            3.26496  -1.18855   2.17892
H            3.73075  -1.84072   0.62989
H            2.07991  -2.64060  -0.91196
H           -0.26357  -3.25994  -1.34696
H            0.86995  -0.50570   2.55765
H           -1.47086  -1.13887   2.12812
H           -4.40813  -0.10347   1.76732
H           -4.07058   2.33448   1.87148
H           -2.57506   3.43515   0.25941
H           -1.42600   2.10315  -1.45854
H           -1.76822  -0.33506  -1.55350
