26
1.417
N           -3.24509  -0.94517   0.45437
C           -1.86378  -0.45787   0.17494
C           -0.79310  -1.40790   0.69881
C            0.59996  -0.92498   0.41856
C            1.26661  -0.11440   1.32610
C            2.53063   0.36196   1.05765
C            3.17562   0.04752  -0.14076
O            4.45530   0.48673  -0.49532
C            5.08649   1.30903   0.46217
C            2.49252  -0.76224  -1.05176
C            1.23006  -1.23551  -0.77817
Cl          -5.58331   1.34909  -0.86067
H           -3.95977  -0.29592   0.08914
H           -3.40168  -1.04768   1.46857
H           -3.40513  -1.86403   0.02063
H           -1.72349   0.53478   0.61809
H           -1.73198  -0.31452  -0.90394
H           -0.93019  -2.40078   0.25778
H           -0.91996  -1.55209   1.77664
H            0.77929   0.14362   2.25126
H            3.02345   0.98581   1.78129
H            6.06855   1.59530   0.08424
H            5.21598   0.76318   1.39813
H            4.49728   2.21250   0.62739
H            2.97887  -1.00606  -1.98005
H            0.71654  -1.85192  -1.49682
