  34

 N         -4.3808304601       -0.0398208247        0.6911649802
 C         -4.4085785750        0.7339999594       -0.5381882194
 C         -3.5289542988        1.9832437512       -0.4786384571
 C         -2.0860782503        1.6550527135       -0.2421640353
 C         -1.2910522588        1.1917000736       -1.2812073490
 C          0.0218381309        0.8418919050       -1.0598076042
 C         -1.5339540120        1.7494216592        1.0281013265
 C         -0.2209190912        1.4015439584        1.2531506477
 C          0.5758782163        0.9425422087        0.2101625126
 N          1.8961835986        0.5819052659        0.4334253231
 N          2.5647366834        0.0439444005       -0.4592677557
 C          3.8841709642       -0.3214269409       -0.2354012485
 C          4.5254617137        0.0403059266        0.9436998750
 C          5.8330337308       -0.3273205873        1.1710490067
 C          6.5186635895       -1.0633609202        0.2238971643
 C          5.8925556431       -1.4298392813       -0.9518789254
 C          4.5853628037       -1.0619366948       -1.1821303302
 Cl        -6.4072619725       -2.5244422691       -0.2156500365
 H         -5.5936767562       -1.5329162902        0.1538800379
 H         -4.6815993946        0.5424612120        1.4656724848
 H         -3.4232729363       -0.2990125347        0.9004545002
 H         -5.4483289519        0.9995440600       -0.7660881014
 H         -4.0843607541        0.0890717384       -1.3636089997
 H         -3.8843018341        2.6450584771        0.3181704907
 H         -3.6188702909        2.5622700321       -1.4046252537
 H         -1.7147360673        1.1033694924       -2.2673603583
 H          0.6403259276        0.4821452842       -1.8633456315
 H         -2.1467267537        2.0949695852        1.8436587502
 H          0.2070214348        1.4742925647        2.2379105077
 H          3.9775369431        0.6119176538        1.6723185546
 H          6.3209810384       -0.0410686595        2.0885838655
 H          7.5415722774       -1.3523875525        0.4025724615
 H          6.4270238558       -2.0056098430       -1.6899837744
 H          4.0857510440       -1.3433020720       -2.0929641310
          34
        -51.37561504
 N         -3.6419046798        0.6798457668        0.7338721666
 C         -3.4870946253        1.1346468211       -0.6372478136
 C         -2.0902346882        1.6832659447       -0.9301831645
 C         -1.0176175486        0.6590309229       -0.7154111233
 C         -0.2970044424        0.6230585918        0.4704436379
 C          0.6569641645       -0.3454507467        0.6845246311
 C         -0.7675551913       -0.3105826200       -1.6762645970
 C          0.1877049839       -1.2797059346       -1.4673934146
 C          0.9186247141       -1.3069377350       -0.2849828174
 N          1.9070561411       -2.2675458579       -0.0857271259
 N          3.0823241689       -2.0000910311        0.2183484735
 C          3.6005131338       -0.7071363781        0.2460145591
 C          4.2111397884       -0.2164726098        1.3962709187
 C          4.6970326595        1.0713842543        1.4335820654
 C          4.5834884019        1.8871177335        0.3243022413
 C          3.9845741775        1.4099618259       -0.8253450378
 C          3.4986538723        0.1222114000       -0.8659123125
 Cl        -6.7846020707       -0.4270548778        0.6760406316
 H         -5.5241329077        0.0141574871        0.7057099342
 H         -3.4441127790        1.4468009478        1.3674233434
 H         -2.9431797653       -0.0276840462        0.9340311903
 H         -4.2549876700        1.8888538388       -0.8497996020
 H         -3.7072018713        0.2966917331       -1.3093864932
 H         -1.8944094316        2.5504666935       -0.2907456225
 H         -2.0307055155        2.0565148872       -1.9587969104
 H         -0.4930417712        1.3631694041        1.2278719635
 H          1.2201747580       -0.3697775122        1.6011516229
 H         -1.3334564007       -0.2991951299       -2.5926458786
 H          0.3877604402       -2.0267821873       -2.2158284120
 H          4.2895809310       -0.8608438702        2.2548404805
 H          5.1660689782        1.4434924946        2.3299908039
 H          4.9636633106        2.8952796777        0.3550807856
 H          3.8967011873        2.0456595797       -1.6913977065
 H          3.0274680265       -0.2607125702       -1.7544256494
          34
        -51.37602901
 N         -3.6593896795        0.6587770676        0.7320138130
 C         -3.5135879140        1.0799093017       -0.6507459444
 C         -2.1237224219        1.6352865679       -0.9634599114
 C         -1.0387122778        0.6275337169       -0.7332123499
 C         -0.3052349568        0.6285585148        0.4453816215
 C          0.6633636399       -0.3227366353        0.6718711038
 C         -0.7863573064       -0.3612447435       -1.6736840635
 C          0.1830606746       -1.3133846807       -1.4523320780
 C          0.9265513419       -1.3038397040       -0.2774044884
 N          1.9205312303       -2.2552777574       -0.0632284857
 N          3.0938488028       -1.9813188982        0.2428026501
 C          3.6175864574       -0.6906015589        0.2567005848
 C          4.2728493957       -0.2092524914        1.3861762038
 C          4.7762961184        1.0721872645        1.4092447764
 C          4.6356910027        1.8916099759        0.3057647112
 C          3.9920342466        1.4238986475       -0.8234696873
 C          3.4892615371        0.1421775764       -0.8499814692
 Cl        -6.8242650635       -0.3815441823        0.6976728963
 H         -5.5577304991        0.0420387149        0.7208270649
 H         -3.4567182467        1.4396586064        1.3475933579
 H         -2.9599579202       -0.0445936149        0.9429406631
 H         -4.2898505567        1.8210318956       -0.8790924428
 H         -3.7283378155        0.2231568168       -1.3007181774
 H         -1.9333480973        2.5185865985       -0.3446651843
 H         -2.0739372381        1.9860740678       -2.0005580655
 H         -0.5026020804        1.3836155596        1.1875562767
 H          1.2352305197       -0.3193340768        1.5834697573
 H         -1.3619444703       -0.3785199123       -2.5839414444
 H          0.3829809731       -2.0768698318       -2.1841326911
 H          4.3739677748       -0.8569342616        2.2400027596
 H          5.2816056719        1.4360080377        2.2893270255
 H          5.0302607293        2.8945573287        0.3253748775
 H          3.8828327220        2.0626138310       -1.6850055818
 H          2.9849119472       -0.2332731333       -1.7233535995
