 xtb: 6.5.1 (fef0646)
          01242310103D

 16 14  0     0  0            999 V2000
   -0.3156    1.9018    0.3862 N   0  0  0  0  0  0  0  0  0  0  0  0
   -1.4069    1.4177   -0.5039 C   0  0  0  0  0  0  0  0  0  0  0  0
   -1.9956    0.0844   -0.0424 C   0  0  0  0  0  0  0  0  0  0  0  0
   -1.0416   -1.0579   -0.1263 C   0  0  0  0  0  0  0  0  0  0  0  0
   -1.4257   -2.3169   -0.0305 C   0  0  0  0  0  0  0  0  0  0  0  0
    2.4473   -0.2036    0.0882 Cl  0  0  0  0  0  0  0  0  0  0  0  0
    0.0247    2.8387    0.1108 H   0  0  0  0  0  0  0  0  0  0  0  0
    0.4996    1.2601    0.3660 H   0  0  0  0  0  0  0  0  0  0  0  0
   -0.6356    1.9613    1.3661 H   0  0  0  0  0  0  0  0  0  0  0  0
   -1.0291    1.3194   -1.5292 H   0  0  0  0  0  0  0  0  0  0  0  0
   -2.1951    2.1803   -0.5524 H   0  0  0  0  0  0  0  0  0  0  0  0
   -2.8889   -0.1564   -0.6339 H   0  0  0  0  0  0  0  0  0  0  0  0
   -2.3473    0.1800    0.9924 H   0  0  0  0  0  0  0  0  0  0  0  0
    0.0082   -0.8326   -0.2343 H   0  0  0  0  0  0  0  0  0  0  0  0
   -2.4607   -2.5710    0.0993 H   0  0  0  0  0  0  0  0  0  0  0  0
   -0.7258   -3.1310   -0.0772 H   0  0  0  0  0  0  0  0  0  0  0  0
  1  2  1  0  0  0  0
  2  3  1  0  0  0  0
  3  4  1  0  0  0  0
  4  5  2  0  0  0  0
  1  7  1  0  0  0  0
  1  8  1  0  0  0  0
  1  9  1  0  0  0  0
  2 10  1  0  0  0  0
  2 11  1  0  0  0  0
  3 12  1  0  0  0  0
  3 13  1  0  0  0  0
  4 14  1  0  0  0  0
  5 15  1  0  0  0  0
  5 16  1  0  0  0  0
M  END
