 xtb: 6.5.1 (fef0646)
          02032320293D

 18 16  0     0  0            999 V2000
   -1.2456    0.3295   -0.5881 N   0  0  0  0  0  0  0  0  0  0  0  0
   -0.5594    0.4622    0.7277 C   0  0  0  0  0  0  0  0  0  0  0  0
    0.9509    0.6304    0.5968 C   0  0  0  0  0  0  0  0  0  0  0  0
    1.6426   -0.5851   -0.0056 C   0  0  0  0  0  0  0  0  0  0  0  0
    3.1362   -0.4183   -0.0453 C   0  0  0  0  0  0  0  0  0  0  0  0
    3.7117   -0.4383   -1.2695 O   0  0  0  0  0  0  0  0  0  0  0  0
    3.7548   -0.2724    0.9860 O   0  0  0  0  0  0  0  0  0  0  0  0
   -4.7398    0.1156   -0.0655 Cl  0  0  0  0  0  0  0  0  0  0  0  0
   -2.2725    0.2678   -0.4738 H   0  0  0  0  0  0  0  0  0  0  0  0
   -0.9411   -0.5155   -1.0883 H   0  0  0  0  0  0  0  0  0  0  0  0
   -1.0461    1.1388   -1.1896 H   0  0  0  0  0  0  0  0  0  0  0  0
   -0.7810   -0.4177    1.3424 H   0  0  0  0  0  0  0  0  0  0  0  0
   -0.9874    1.3149    1.2690 H   0  0  0  0  0  0  0  0  0  0  0  0
    1.3966    0.8389    1.5769 H   0  0  0  0  0  0  0  0  0  0  0  0
    1.1726    1.5120   -0.0140 H   0  0  0  0  0  0  0  0  0  0  0  0
    1.2870   -0.7624   -1.0239 H   0  0  0  0  0  0  0  0  0  0  0  0
    1.4010   -1.4831    0.5696 H   0  0  0  0  0  0  0  0  0  0  0  0
    4.6664   -0.3211   -1.1686 H   0  0  0  0  0  0  0  0  0  0  0  0
  1  2  1  0  0  0  0
  2  3  1  0  0  0  0
  3  4  1  0  0  0  0
  4  5  1  0  0  0  0
  5  6  1  0  0  0  0
  5  7  2  0  0  0  0
  1  9  1  0  0  0  0
  1 10  1  0  0  0  0
  1 11  1  0  0  0  0
  2 12  1  0  0  0  0
  2 13  1  0  0  0  0
  3 14  1  0  0  0  0
  3 15  1  0  0  0  0
  4 16  1  0  0  0  0
  4 17  1  0  0  0  0
  6 18  1  0  0  0  0
M  END
