16
2.642
N            0.14414  -0.33243  -0.36384
C           -0.97529   0.64632  -0.31114
C           -2.32469  -0.00753  -0.60032
C           -2.69488  -1.03917   0.41191
C           -2.45900  -2.32721   0.24749
Cl           3.19838   1.20717   0.28735
H            1.06008   0.11128  -0.17176
H            0.20125  -0.78232  -1.29586
H            0.01017  -1.08466   0.33019
H           -0.78289   1.45928  -1.02340
H           -1.00087   1.11923   0.67822
H           -2.29874  -0.47112  -1.59418
H           -3.11444   0.75387  -0.65908
H           -3.12332  -0.69378   1.34088
H           -2.00437  -2.69715  -0.65206
H           -2.70994  -3.05267   0.99952
