16
 xtb: 6.5.1 (fef0646)
N            0.12092880179241       -1.13454098288186        0.91515553284761
C            1.11236265694533       -1.13966630933455       -0.20098530499319
C            1.23358658049082        0.23216090659561       -0.86316458024075
C            1.77403956648272        1.28190803564950        0.04954935452393
C            3.02879703870434        1.29025947952401        0.46102139420003
Cl          -2.79024809798683       -0.09031826632159       -0.20429124168036
H           -0.76433178030454       -0.85806285833086        0.62049564997896
H            0.47509963767418       -0.50276731598898        1.67231496971602
H            0.08482782086577       -2.09202574431060        1.36552088509447
H            0.83500178151480       -1.90372272125944       -0.94141521237191
H            2.12765222606682       -1.47376429876882        0.15195081698560
H            0.26305525720854        0.52192180489005       -1.23241328810875
H            1.89300714162679        0.17359770595637       -1.74238436232500
H            1.07992485077789        1.98739874476709        0.47200330858602
H            3.75245344914378        0.60036610172147        0.07838877263877
H            3.40499830330366        2.06186273516784        1.12307240121814
