 xtb: 6.5.1 (fef0646)
          01242317083D

 16 14  0     0  0            999 V2000
    0.1986   -1.1686    0.9458 N   0  0  0  0  0  0  0  0  0  0  0  0
    1.1516   -1.1595   -0.2007 C   0  0  0  0  0  0  0  0  0  0  0  0
    1.2546    0.2190   -0.8521 C   0  0  0  0  0  0  0  0  0  0  0  0
    1.7779    1.2625    0.0767 C   0  0  0  0  0  0  0  0  0  0  0  0
    3.0445    1.3252    0.4365 C   0  0  0  0  0  0  0  0  0  0  0  0
   -2.9045   -0.0532   -0.2362 Cl  0  0  0  0  0  0  0  0  0  0  0  0
   -0.7420   -0.8668    0.6365 H   0  0  0  0  0  0  0  0  0  0  0  0
    0.5020   -0.5135    1.6798 H   0  0  0  0  0  0  0  0  0  0  0  0
    0.1083   -2.1024    1.3720 H   0  0  0  0  0  0  0  0  0  0  0  0
    0.8412   -1.9079   -0.9407 H   0  0  0  0  0  0  0  0  0  0  0  0
    2.1417   -1.4797    0.1440 H   0  0  0  0  0  0  0  0  0  0  0  0
    0.2685    0.5160   -1.2293 H   0  0  0  0  0  0  0  0  0  0  0  0
    1.9003    0.1742   -1.7384 H   0  0  0  0  0  0  0  0  0  0  0  0
    1.0748    1.9656    0.4967 H   0  0  0  0  0  0  0  0  0  0  0  0
    3.7633    0.6269    0.0533 H   0  0  0  0  0  0  0  0  0  0  0  0
    3.4063    2.0697    1.1202 H   0  0  0  0  0  0  0  0  0  0  0  0
  1  2  1  0  0  0  0
  2  3  1  0  0  0  0
  3  4  1  0  0  0  0
  4  5  2  0  0  0  0
  1  7  1  0  0  0  0
  1  8  1  0  0  0  0
  1  9  1  0  0  0  0
  2 10  1  0  0  0  0
  2 11  1  0  0  0  0
  3 12  1  0  0  0  0
  3 13  1  0  0  0  0
  4 14  1  0  0  0  0
  5 15  1  0  0  0  0
  5 16  1  0  0  0  0
M  END
