34
 xtb: 6.5.1 (fef0646)
N            3.22704384827597        0.40148656455976       -0.90693799029056
C            3.35816322881373        0.29849190235376        0.57423765180336
C            3.06255253041088       -1.10869653811168        1.08725814353359
C            1.64316869331072       -1.52784354088777        0.84518599442432
C            1.31123901341408       -2.33780988902582       -0.23278219105806
C            0.00213779228649       -2.69090489841178       -0.47252330328462
C            0.62648212839126       -1.07560584371996        1.67583745919039
C           -0.68296519244838       -1.42926679921065        1.44206314821885
C           -1.01798628646042       -2.23755188831853        0.35950018098131
N           -2.34395036433030       -2.58276215860150        0.10022662868400
N           -3.28090256784523       -1.76224449849593        0.04658929186656
C           -3.10989107283217       -0.37805038864523        0.09590210514221
C           -3.77946323942214        0.38144610005960        1.05237192274758
C           -3.59115134815681        1.74399895471392        1.12198663932851
C           -2.73616320948703        2.37168433659233        0.23630768652511
C           -2.07235932463945        1.63202241586644       -0.72345678613404
C           -2.25810342804946        0.26917968495661       -0.79505084951307
Cl           3.76922584486020        3.59433886246853       -1.92837081084825
H            3.39690388617479        1.34365879967088       -1.23812647229357
H            2.27839186373216        0.11103088814734       -1.19850345508458
H            3.89277467886723       -0.24473435079816       -1.37076460555778
H            2.67228398776433        1.00280077347247        1.05533366005577
H            4.36376900623006        0.59940819340231        0.87998141157659
H            3.26812504423050       -1.18586529878460        2.17355903441293
H            3.73272796461578       -1.83604147830300        0.62333465925543
H            2.08347048943563       -2.65477291416290       -0.90440137979536
H           -0.26021858984317       -3.27623490007371       -1.33662151464847
H            0.87084994634296       -0.48617897309680        2.54349770652461
H           -1.46978503408719       -1.12103651215743        2.11700409464392
H           -4.41749010252644       -0.10733766878644        1.75951637701059
H           -4.08239679423377        2.33068750057459        1.87080830958157
H           -2.57893421887843        3.43595229694760        0.26925078201142
H           -1.42071013824196        2.10868530432030       -1.44631138461279
H           -1.76027736603678       -0.32951361426212       -1.54823124924714
