 xtb: 6.5.1 (fef0646)
          01242317073D

 19 18  0     0  0            999 V2000
   -1.0730   -2.5863   -0.5927 N   0  0  0  0  0  0  0  0  0  0  0  0
   -1.0796   -1.0995   -0.7022 C   0  0  0  0  0  0  0  0  0  0  0  0
   -0.3074   -0.4325    0.4316 C   0  0  0  0  0  0  0  0  0  0  0  0
   -0.2871    1.0516    0.3221 C   0  0  0  0  0  0  0  0  0  0  0  0
    0.5906    1.7745   -0.4167 C   0  0  0  0  0  0  0  0  0  0  0  0
    0.3699    3.1819   -0.3505 C   0  0  0  0  0  0  0  0  0  0  0  0
   -0.6747    3.5208    0.4356 C   0  0  0  0  0  0  0  0  0  0  0  0
   -1.4166    2.1159    1.1179 S   0  0  0  0  0  0  0  0  0  0  0  0
    2.3069   -3.5390   -0.5834 Cl  0  0  0  0  0  0  0  0  0  0  0  0
   -0.1015   -2.9412   -0.5980 H   0  0  0  0  0  0  0  0  0  0  0  0
   -1.5783   -3.0349   -1.3690 H   0  0  0  0  0  0  0  0  0  0  0  0
   -1.5064   -2.8920    0.2886 H   0  0  0  0  0  0  0  0  0  0  0  0
   -2.1113   -0.7294   -0.7133 H   0  0  0  0  0  0  0  0  0  0  0  0
   -0.6516   -0.7962   -1.6648 H   0  0  0  0  0  0  0  0  0  0  0  0
    0.7205   -0.8104    0.4545 H   0  0  0  0  0  0  0  0  0  0  0  0
   -0.7446   -0.7162    1.3947 H   0  0  0  0  0  0  0  0  0  0  0  0
    1.3784    1.3226   -0.9993 H   0  0  0  0  0  0  0  0  0  0  0  0
    0.9785    3.9011   -0.8785 H   0  0  0  0  0  0  0  0  0  0  0  0
   -1.0136    4.5222    0.6229 H   0  0  0  0  0  0  0  0  0  0  0  0
  1  2  1  0  0  0  0
  2  3  1  0  0  0  0
  3  4  1  0  0  0  0
  4  5  2  0  0  0  0
  5  6  4  0  0  0  0
  6  7  2  0  0  0  0
  4  8  1  0  0  0  0
  7  8  1  0  0  0  0
  1 10  1  0  0  0  0
  1 11  1  0  0  0  0
  1 12  1  0  0  0  0
  2 13  1  0  0  0  0
  2 14  1  0  0  0  0
  3 15  1  0  0  0  0
  3 16  1  0  0  0  0
  5 17  1  0  0  0  0
  6 18  1  0  0  0  0
  7 19  1  0  0  0  0
M  END
