14

N          1.10456        0.21304        0.32440
C          2.55713        0.08911        0.15753
C          3.02501        0.73131       -1.14831
C          2.65074        2.20447       -1.16011
C          2.32968        3.46814       -1.17024
Cl        -0.72932       -1.74279       -0.60613
H          0.73392       -0.20890        1.18538
H          0.57711       -0.40116       -0.36251
H          0.69913        1.14378        0.20337
H          2.79782       -0.97992        0.18181
H          3.01238        0.57559        1.02576
H          2.56360        0.23599       -2.00971
H          4.11169        0.63480       -1.24342
H          2.07424        4.50386       -1.19597
