 xtb: 6.5.1 (fef0646)
          01242314563D

 14 12  0     0  0            999 V2000
    1.1049    0.2083    0.5404 N   0  0  0  0  0  0  0  0  0  0  0  0
    2.5543    0.1509    0.2660 C   0  0  0  0  0  0  0  0  0  0  0  0
    2.8189    0.6960   -1.1361 C   0  0  0  0  0  0  0  0  0  0  0  0
    2.5633    2.1214   -1.2081 C   0  0  0  0  0  0  0  0  0  0  0  0
    2.3477    3.2986   -1.2311 C   0  0  0  0  0  0  0  0  0  0  0  0
   -0.2737   -1.5217   -1.5711 Cl  0  0  0  0  0  0  0  0  0  0  0  0
    0.8769   -0.1325    1.4761 H   0  0  0  0  0  0  0  0  0  0  0  0
    0.5952   -0.3900   -0.1599 H   0  0  0  0  0  0  0  0  0  0  0  0
    0.7633    1.1665    0.4228 H   0  0  0  0  0  0  0  0  0  0  0  0
    2.8782   -0.8877    0.3137 H   0  0  0  0  0  0  0  0  0  0  0  0
    3.0923    0.7414    1.0090 H   0  0  0  0  0  0  0  0  0  0  0  0
    2.1675    0.1768   -1.8442 H   0  0  0  0  0  0  0  0  0  0  0  0
    3.8549    0.5090   -1.4209 H   0  0  0  0  0  0  0  0  0  0  0  0
    2.1641    4.3304   -1.2749 H   0  0  0  0  0  0  0  0  0  0  0  0
  1  2  1  0  0  0  0
  2  3  1  0  0  0  0
  3  4  1  0  0  0  0
  4  5  3  0  0  0  0
  1  7  1  0  0  0  0
  1  8  1  0  0  0  0
  1  9  1  0  0  0  0
  2 10  1  0  0  0  0
  2 11  1  0  0  0  0
  3 12  1  0  0  0  0
  3 13  1  0  0  0  0
  5 14  1  0  0  0  0
M  END
