13
0.049
N           -0.17891  -1.83494  -0.26860
C            1.03217  -1.11702   0.21872
C            1.25897   0.20565  -0.50861
C            2.39630   0.92001  -0.06090
N            3.32740   1.49503   0.31240
Cl          -2.92086   0.35432   0.15161
H           -1.01766  -1.24239  -0.15142
H           -0.33751  -2.71242   0.24206
H           -0.09610  -2.05784  -1.26768
H            1.91460  -1.75714   0.10392
H            0.94224  -0.93123   1.29546
H            0.37102   0.83876  -0.39885
H            1.35129   0.02000  -1.58463
