13
 xtb: 6.5.1 (fef0646)
N           -0.09935847014379       -1.24792847032541        0.13301498528120
C            0.76873747839317       -0.04100683300117        0.03557549025821
C            2.25221904389900       -0.38555447052129        0.13643306147770
C            3.10847365107705        0.73874103453758        0.04825606159248
N            3.80344087138497        1.66389276691533       -0.02467771778514
Cl          -3.76509394151484       -0.10101286215139       -0.14457199470086
H           -1.16085036864365       -0.94245814759032        0.06093782320916
H           -0.03172301810082       -1.70026583529713        1.02212922495143
H            0.03230398167005       -1.87820226041633       -0.62703101188279
H            0.47224737826072        0.69389361661350        0.82677001639787
H            0.53921303426408        0.50798386038318       -0.90695479911203
H            2.45860520471868       -1.09953710039930       -0.65980153357081
H            2.39102102554897       -0.91541356815481        1.07213802402624
