28
1.071
N           -2.42806   0.02882  -0.94138
C           -2.02201  -1.39087  -0.73767
C           -0.72653  -1.54685   0.05333
C            0.51001  -0.88615  -0.60440
C            1.81029  -1.67162  -0.30006
C            3.02718  -1.04115  -0.99908
C            3.19236   0.43543  -0.59954
C            1.90584   1.22976  -0.88182
C            0.69903   0.59077  -0.17596
Cl          -2.14176   1.65802   2.11267
H           -3.37773   0.10949  -1.34691
H           -1.78095   0.51722  -1.58251
H           -2.42523   0.54191  -0.04241
H           -1.92139  -1.88016  -1.71209
H           -2.83467  -1.92570  -0.22734
H           -0.52151  -2.61541   0.20282
H           -0.85250  -1.13828   1.06264
H            0.36705  -0.90503  -1.69693
H            1.69421  -2.72570  -0.58500
H            1.97006  -1.67815   0.78458
H            2.89680  -1.11050  -2.08663
H            3.94121  -1.61018  -0.77812
H            4.05071   0.88610  -1.11690
H            3.43083   0.49796   0.46993
H            1.72272   1.25185  -1.96374
H            2.02118   2.28139  -0.58359
H           -0.21256   1.17424  -0.34850
H            0.85545   0.61977   0.90897
