 xtb: 6.5.1 (fef0646)
          01242310103D

 18 16  0     0  0            999 V2000
    0.2164   -1.6939   -0.3199 N   0  0  0  0  0  0  0  0  0  0  0  0
   -0.9340   -0.9370    0.2469 C   0  0  0  0  0  0  0  0  0  0  0  0
   -1.0845    0.4375   -0.3935 C   0  0  0  0  0  0  0  0  0  0  0  0
   -2.2144    1.2764    0.2109 C   0  0  0  0  0  0  0  0  0  0  0  0
   -3.5975    0.6953   -0.0417 C   0  0  0  0  0  0  0  0  0  0  0  0
    3.0964    0.2097    0.1461 Cl  0  0  0  0  0  0  0  0  0  0  0  0
    0.0987   -1.8416   -1.3347 H   0  0  0  0  0  0  0  0  0  0  0  0
    0.3317   -2.6211    0.1213 H   0  0  0  0  0  0  0  0  0  0  0  0
    1.1022   -1.1685   -0.1875 H   0  0  0  0  0  0  0  0  0  0  0  0
   -0.8064   -0.8282    1.3307 H   0  0  0  0  0  0  0  0  0  0  0  0
   -1.8546   -1.5181    0.1176 H   0  0  0  0  0  0  0  0  0  0  0  0
   -1.2493    0.3194   -1.4713 H   0  0  0  0  0  0  0  0  0  0  0  0
   -0.1300    0.9736   -0.3087 H   0  0  0  0  0  0  0  0  0  0  0  0
   -2.1683    2.2995   -0.1884 H   0  0  0  0  0  0  0  0  0  0  0  0
   -2.0456    1.3851    1.2907 H   0  0  0  0  0  0  0  0  0  0  0  0
   -4.3897    1.3337    0.3583 H   0  0  0  0  0  0  0  0  0  0  0  0
   -3.7117   -0.2874    0.4205 H   0  0  0  0  0  0  0  0  0  0  0  0
   -3.7849    0.5725   -1.1108 H   0  0  0  0  0  0  0  0  0  0  0  0
  1  2  1  0  0  0  0
  2  3  1  0  0  0  0
  3  4  1  0  0  0  0
  4  5  1  0  0  0  0
  1  7  1  0  0  0  0
  1  8  1  0  0  0  0
  1  9  1  0  0  0  0
  2 10  1  0  0  0  0
  2 11  1  0  0  0  0
  3 12  1  0  0  0  0
  3 13  1  0  0  0  0
  4 14  1  0  0  0  0
  4 15  1  0  0  0  0
  5 16  1  0  0  0  0
  5 17  1  0  0  0  0
  5 18  1  0  0  0  0
M  END
