 xtb: 6.5.1 (fef0646)
          01242310053D

 36 36  0     0  0            999 V2000
   -4.4096    0.4243    1.6822 N   0  0  0  0  0  0  0  0  0  0  0  0
   -4.5809    1.6082    0.7970 C   0  0  0  0  0  0  0  0  0  0  0  0
   -3.9853    1.3730   -0.5892 C   0  0  0  0  0  0  0  0  0  0  0  0
   -2.5384    0.9769   -0.5379 C   0  0  0  0  0  0  0  0  0  0  0  0
   -1.5407    1.9377   -0.4569 C   0  0  0  0  0  0  0  0  0  0  0  0
   -0.2133    1.5730   -0.3678 C   0  0  0  0  0  0  0  0  0  0  0  0
    0.1610    0.2290   -0.3484 C   0  0  0  0  0  0  0  0  0  0  0  0
    1.5542   -0.1972   -0.2560 C   0  0  0  0  0  0  0  0  0  0  0  0
    2.5965    0.6086   -0.0068 C   0  0  0  0  0  0  0  0  0  0  0  0
    3.9903    0.1836    0.0832 C   0  0  0  0  0  0  0  0  0  0  0  0
    4.9560    1.0850    0.5354 C   0  0  0  0  0  0  0  0  0  0  0  0
    6.2820    0.7168    0.6310 C   0  0  0  0  0  0  0  0  0  0  0  0
    6.6740   -0.5586    0.2749 C   0  0  0  0  0  0  0  0  0  0  0  0
    5.7351   -1.4646   -0.1791 C   0  0  0  0  0  0  0  0  0  0  0  0
    4.4079   -1.0998   -0.2754 C   0  0  0  0  0  0  0  0  0  0  0  0
   -0.8481   -0.7311   -0.4243 C   0  0  0  0  0  0  0  0  0  0  0  0
   -2.1738   -0.3620   -0.5128 C   0  0  0  0  0  0  0  0  0  0  0  0
   -5.1092   -2.4085   -0.2373 Cl  0  0  0  0  0  0  0  0  0  0  0  0
   -4.9086    0.5245    2.5819 H   0  0  0  0  0  0  0  0  0  0  0  0
   -3.4119    0.2655    1.8924 H   0  0  0  0  0  0  0  0  0  0  0  0
   -4.7559   -0.4339    1.2132 H   0  0  0  0  0  0  0  0  0  0  0  0
   -4.1057    2.4798    1.2633 H   0  0  0  0  0  0  0  0  0  0  0  0
   -5.6464    1.8585    0.7157 H   0  0  0  0  0  0  0  0  0  0  0  0
   -4.0950    2.2674   -1.2147 H   0  0  0  0  0  0  0  0  0  0  0  0
   -4.5501    0.5863   -1.1030 H   0  0  0  0  0  0  0  0  0  0  0  0
   -1.8161    2.9797   -0.4627 H   0  0  0  0  0  0  0  0  0  0  0  0
    0.5421    2.3386   -0.3216 H   0  0  0  0  0  0  0  0  0  0  0  0
    1.7353   -1.2499   -0.3833 H   0  0  0  0  0  0  0  0  0  0  0  0
    2.4106    1.6548    0.1619 H   0  0  0  0  0  0  0  0  0  0  0  0
    4.6525    2.0807    0.8149 H   0  0  0  0  0  0  0  0  0  0  0  0
    7.0140    1.4262    0.9844 H   0  0  0  0  0  0  0  0  0  0  0  0
    7.7113   -0.8462    0.3494 H   0  0  0  0  0  0  0  0  0  0  0  0
    6.0414   -2.4599   -0.4609 H   0  0  0  0  0  0  0  0  0  0  0  0
    3.6893   -1.8123   -0.6431 H   0  0  0  0  0  0  0  0  0  0  0  0
   -0.5807   -1.7751   -0.4057 H   0  0  0  0  0  0  0  0  0  0  0  0
   -2.9447   -1.1151   -0.5494 H   0  0  0  0  0  0  0  0  0  0  0  0
  1  2  1  0  0  0  0
  2  3  1  0  0  0  0
  3  4  1  0  0  0  0
  4  5  4  0  0  0  0
  5  6  4  0  0  0  0
  6  7  4  0  0  0  0
  7  8  1  0  0  0  0
  8  9  2  0  0  0  0
  9 10  1  0  0  0  0
 10 11  4  0  0  0  0
 11 12  4  0  0  0  0
 12 13  4  0  0  0  0
 13 14  4  0  0  0  0
 10 15  4  0  0  0  0
 14 15  4  0  0  0  0
  7 16  4  0  0  0  0
  4 17  4  0  0  0  0
 16 17  4  0  0  0  0
  1 19  1  0  0  0  0
  1 20  1  0  0  0  0
  1 21  1  0  0  0  0
  2 22  1  0  0  0  0
  2 23  1  0  0  0  0
  3 24  1  0  0  0  0
  3 25  1  0  0  0  0
  5 26  1  0  0  0  0
  6 27  1  0  0  0  0
  8 28  1  0  0  0  0
  9 29  1  0  0  0  0
 11 30  1  0  0  0  0
 12 31  1  0  0  0  0
 13 32  1  0  0  0  0
 14 33  1  0  0  0  0
 15 34  1  0  0  0  0
 16 35  1  0  0  0  0
 17 36  1  0  0  0  0
M  END
