  28

 N          1.3204500000        0.0263000000        0.1672700000
 C          2.7806500000       -0.0141900000        0.0642200000
 C          3.3348500000        1.1338900000        0.9160200000
 C          3.2397400000        0.0480600000       -1.3805500000
 C          3.4802200000       -1.1258900000       -2.1145500000
 C          3.8698900000       -1.0516300000       -3.4611700000
 C          3.4012900000        1.2795100000       -2.0349500000
 C          3.7927600000        1.3652800000       -3.3699500000
 C          4.0146700000        0.1830000000       -4.1119300000
 C          4.3699900000        0.2928900000       -5.4647200000
 C          4.4814700000        1.5440200000       -6.0790600000
 C          4.2617900000        2.7077400000       -5.3454200000
 C          3.9171900000        2.6163100000       -3.9994900000
 Cl        -1.4019500000       -0.8740700000        0.4495600000
 H          0.7933200000       -0.7203100000       -0.3323400000
 H          0.8651800000        0.8760200000       -0.1817400000
 H          0.9130900000       -0.1130100000        1.1070300000
 H          3.1000300000       -0.9610800000        0.5156300000
 H          3.0035100000        2.1174100000        0.5576700000
 H          4.4324500000        1.1355100000        0.9016300000
 H          3.0070800000        1.0597000000        1.9563200000
 H          3.3656600000       -2.1008700000       -1.6654500000
 H          4.0457600000       -1.9786500000       -4.0111200000
 H          3.2229000000        2.2156500000       -1.5093900000
 H          4.5472300000       -0.6008400000       -6.0595500000
 H          4.7412500000        1.6115700000       -7.1305700000
 H          4.3468400000        3.6803100000       -5.8199800000
 H          3.7497600000        3.5343500000       -3.4374900000
