21

N          2.89799       -0.35910        3.79701
C          2.43841       -1.01527        2.54285
C          3.03359       -0.31407        1.31825
C          4.54410       -0.31114        1.32025
C          5.26196       -1.51714        1.30309
C          6.65865       -1.51055        1.32953
C          7.34649       -0.30034        1.35554
Cl         9.06408       -0.29512        1.38610
C          6.64762        0.90416        1.35417
C          5.25089        0.90081        1.33412
H          2.52807       -0.83536        4.62884
H          2.60905        0.62630        3.84462
H          3.92749       -0.37881        3.86703
H          1.34596       -0.96039        2.53788
H          2.74278       -2.06408        2.61087
H          2.65613        0.71518        1.27623
H          2.68436       -0.80810        0.40349
H          4.75289       -2.47798        1.24785
H          7.20608       -2.45079        1.31298
H          7.18916        1.84863        1.35262
H          4.73140        1.85776        1.30750
