  29

 N         -4.9955094288        0.3658080824       -0.0008137117
 C         -3.7636794205       -0.4749659900       -0.0001090033
 C         -2.4877070659        0.3579215065        0.0008444525
 C         -1.2105270171       -0.4856123176        0.0010262169
 C          0.0679487806        0.3554512502        0.0010885591
 C          1.3486473655       -0.4822890058       -0.0001277154
 C          2.6234467873        0.3644313254        0.0000818978
 C          3.9073436673       -0.4687344617       -0.0004359412
 C          5.1697917734        0.3801413939       -0.0005790494
 H         -5.8524056132       -0.2083749325       -0.0008178428
 H         -5.0289684783        0.9742999855       -0.8316948479
 H         -5.0294536673        0.9749956333        0.8296852508
 H         -3.7750616151       -1.1379256567       -0.8732683681
 H         -3.7761756245       -1.1381857122        0.8727748819
 H         -2.4893485958        1.0244187985        0.8707502981
 H         -2.4885969524        1.0251142339       -0.8685713208
 H         -1.2110581759       -1.1521722732       -0.8690291228
 H         -1.2112212106       -1.1522145837        0.8710831814
 H          0.0674252579        1.0216392086        0.8714784174
 H          0.0666710128        1.0228744665       -0.8683211639
 H          1.3507322506       -1.1481388321       -0.8707572967
 H          1.3514077848       -1.1496077355        0.8693630929
 H          2.6205600277        1.0308591462        0.8702633521
 H          2.6203358977        1.0316713881       -0.8695782405
 H          3.9056206158       -1.1365050338       -0.8709580616
 H          3.9060764684       -1.1368992282        0.8697897429
 H          5.2122308273        1.0268462189       -0.8789063079
 H          6.0745952817       -0.2316958654       -0.0009661349
 H          5.2127036448        1.0264505192        0.8780280157
          29
        -29.82522026
 N          3.6432896828       -1.2356393226        0.5241714361
 C          3.2726004342       -0.4375907157       -0.6789496777
 C          2.7344192771        0.9480769696       -0.3349798139
 C          1.4221803793        0.9397557495        0.4546203014
 C          0.2348058694        0.3574869551       -0.3152739899
 C         -1.0853110160        0.4495865286        0.4537476064
 C         -2.2778797917       -0.1211114956       -0.3164993850
 C         -3.5996075996       -0.0161721354        0.4482176268
 C         -4.7829184330       -0.5837257424       -0.3212189317
 H          4.0561134215       -2.1453792585        0.2667021142
 H          2.8263391969       -1.4287749142        1.1215188191
 H          4.3368193812       -0.7355732817        1.0996702841
 H          2.5377215999       -0.9928614884       -1.2724285804
 H          4.1559096536       -0.3459055841       -1.3244577549
 H          2.5933587948        1.5296573483       -1.2543983979
 H          3.5012477074        1.4894263990        0.2327698714
 H          1.1734478689        1.9629233785        0.7632308822
 H          1.5558066165        0.3891063063        1.3920839643
 H          0.4325960879       -0.6887340829       -0.5726283460
 H          0.1335812105        0.8752382461       -1.2760207331
 H         -1.2852136709        1.4956431643        0.7130473212
 H         -0.9871037090       -0.0685697420        1.4145492949
 H         -2.0834700446       -1.1695585765       -0.5699091555
 H         -2.3715000383        0.3927623887       -1.2801772486
 H         -3.7880996269        1.0345404003        0.7020174727
 H         -3.5008298186       -0.5280787984        1.4136465295
 H         -4.9240381660       -0.0641392109       -1.2706487358
 H         -5.7156015194       -0.4972958678        0.2405639840
 H         -4.6364055305       -1.6407929656       -0.5502072770
