  29

 N          0.9771100910       -0.0556114409       -0.1075146403
 C          2.4606743018       -0.0594824444       -0.0988825131
 C          2.9895925006        0.1544175199        1.3149211316
 C          4.5178261392        0.1578781550        1.3348553614
 C          5.0583709330        0.3703940162        2.7477432707
 C          6.5848744898        0.3774082625        2.7820073376
 C          7.1217212159        0.5900031969        4.1956383805
 C          8.6481385954        0.5979105699        4.2373273288
 C          9.1756903698        0.8103921429        5.6516409603
 H          0.6170812937       -0.2032070043       -1.0571345085
 H          0.6247621363        0.8427017243        0.2440291258
 H          0.6198896923       -0.8013882543        0.5012975213
 H          2.8249177080        0.7339130301       -0.7512376026
 H          2.8186213133       -1.0140509541       -0.4840569493
 H          2.6378655084       -0.6401742334        1.9741902201
 H          2.6374910420        1.1080594812        1.7102058161
 H          4.8961451349        0.9517846063        0.6882248920
 H          4.8967998191       -0.7907354013        0.9501143764
 H          4.6942706982       -0.4231823955        3.4041172585
 H          4.6921641010        1.3206812668        3.1426901048
 H          6.9625418535        1.1718554251        2.1338092833
 H          6.9647011485       -0.5712712923        2.3951457614
 H          6.7518426167       -0.2038351103        4.8491941689
 H          6.7499575333        1.5398468124        4.5876760578
 H          9.0246853062        1.3925154930        3.5888660393
 H          9.0265555301       -0.3510831085        3.8501740407
 H          8.8287011725        1.7612928520        6.0504310269
 H         10.2631929305        0.8129292140        5.6591463104
 H          8.8309648251        0.0171278708        6.3116004393
