  29

 N          1.0579000000        0.0274500000       -0.0415600000
 C          2.5380600000        0.0144200000       -0.0552800000
 C          3.0487000000        0.9093300000        1.0607100000
 C          4.5744500000        0.9239300000        1.0810300000
 C          5.0989600000        1.8215100000        2.1975500000
 C          6.6247700000        1.8350700000        2.2114800000
 C          7.1476000000        2.7316900000        3.3291800000
 C          8.6731700000        2.7487000000        3.3505000000
 C          9.1915300000        3.6428500000        4.4632500000
 H          0.6758300000       -0.5729600000       -0.7865000000
 H          0.6843000000        0.9733500000       -0.1900600000
 H          0.6840200000       -0.3201800000        0.8515900000
 H          2.8523800000        0.3705300000       -1.0408300000
 H          2.8509000000       -1.0249600000        0.0788300000
 H          2.6708800000        0.5549600000        2.0276600000
 H          2.6716700000        1.9307000000        0.9248100000
 H          4.9516400000        1.2794400000        0.1145200000
 H          4.9509100000       -0.0968100000        1.2207800000
 H          4.7239900000        1.4656900000        3.1651800000
 H          4.7217300000        2.8421900000        2.0595900000
 H          7.0002900000        2.1908800000        1.2442800000
 H          7.0010900000        0.8141100000        2.3497000000
 H          6.7685100000        2.3756100000        4.2946800000
 H          6.7685900000        3.7519500000        3.1899700000
 H          9.0559300000        3.1073900000        2.3878900000
 H          9.0553800000        1.7312500000        3.4938500000
 H          8.8456400000        4.6727200000        4.3285700000
 H         10.2854600000        3.6473600000        4.4686100000
 H          8.8458900000        3.2895900000        5.4401400000
