 xtb: 6.5.1 (fef0646)
          01242314573D

 45 48  0     0  0            999 V2000
    3.3131   -0.9631    0.9198 N   0  0  0  0  0  0  0  0  0  0  0  0
    2.6719    0.2163    0.2988 C   0  0  0  0  0  0  0  0  0  0  0  0
    3.5813    1.4436    0.4010 C   0  0  0  0  0  0  0  0  0  0  0  0
    4.7712    1.3529   -0.4943 C   0  0  0  0  0  0  0  0  0  0  0  0
    5.0450    2.0769   -1.6147 C   0  0  0  0  0  0  0  0  0  0  0  0
    6.2611    1.7249   -2.2307 C   0  0  0  0  0  0  0  0  0  0  0  0
    6.9344    0.7203   -1.5853 C   0  0  0  0  0  0  0  0  0  0  0  0
    8.1722    0.1036   -1.9204 C   0  0  0  0  0  0  0  0  0  0  0  0
    8.8289   -0.9054   -1.2613 C   0  0  0  0  0  0  0  0  0  0  0  0
   10.0383   -1.2946   -1.8610 C   0  0  0  0  0  0  0  0  0  0  0  0
   10.9079   -2.3714   -1.3109 C   0  0  0  0  0  0  0  0  0  0  0  0
   10.3148   -0.5689   -3.0049 C   0  0  0  0  0  0  0  0  0  0  0  0
   11.4126   -0.6511   -3.9049 C   0  0  0  0  0  0  0  0  0  0  0  0
   11.6268    0.1210   -5.0254 C   0  0  0  0  0  0  0  0  0  0  0  0
   12.7922   -0.2051   -5.7244 C   0  0  0  0  0  0  0  0  0  0  0  0
   13.5023   -1.2376   -5.1565 C   0  0  0  0  0  0  0  0  0  0  0  0
   14.7157   -1.8690   -5.5696 C   0  0  0  0  0  0  0  0  0  0  0  0
   15.6421   -1.4958   -6.5206 C   0  0  0  0  0  0  0  0  0  0  0  0
   15.5852   -0.2634   -7.3607 C   0  0  0  0  0  0  0  0  0  0  0  0
   16.7058   -2.4242   -6.6142 C   0  0  0  0  0  0  0  0  0  0  0  0
   16.5972   -3.4721   -5.7594 C   0  0  0  0  0  0  0  0  0  0  0  0
   15.1810   -3.3669   -4.7967 S   0  0  0  0  0  0  0  0  0  0  0  0
   12.7012   -1.8102   -3.7205 S   0  0  0  0  0  0  0  0  0  0  0  0
    9.0643    0.6062   -3.3330 S   0  0  0  0  0  0  0  0  0  0  0  0
    6.0565    0.2119   -0.1833 S   0  0  0  0  0  0  0  0  0  0  0  0
    2.7306   -1.7995    0.8088 H   0  0  0  0  0  0  0  0  0  0  0  0
    3.4747   -0.7967    1.9193 H   0  0  0  0  0  0  0  0  0  0  0  0
    4.2304   -1.1299    0.4801 H   0  0  0  0  0  0  0  0  0  0  0  0
    1.7333    0.4267    0.8096 H   0  0  0  0  0  0  0  0  0  0  0  0
    2.4637    0.0039   -0.7492 H   0  0  0  0  0  0  0  0  0  0  0  0
    3.9100    1.5735    1.4327 H   0  0  0  0  0  0  0  0  0  0  0  0
    3.0126    2.3277    0.1159 H   0  0  0  0  0  0  0  0  0  0  0  0
    4.4007    2.8477   -1.9972 H   0  0  0  0  0  0  0  0  0  0  0  0
    6.6474    2.1863   -3.1228 H   0  0  0  0  0  0  0  0  0  0  0  0
    8.4521   -1.3593   -0.3613 H   0  0  0  0  0  0  0  0  0  0  0  0
   10.4863   -2.7582   -0.3881 H   0  0  0  0  0  0  0  0  0  0  0  0
   11.9099   -1.9927   -1.1114 H   0  0  0  0  0  0  0  0  0  0  0  0
   11.0063   -3.1879   -2.0258 H   0  0  0  0  0  0  0  0  0  0  0  0
   10.9511    0.9009   -5.3323 H   0  0  0  0  0  0  0  0  0  0  0  0
   13.0847    0.2929   -6.6281 H   0  0  0  0  0  0  0  0  0  0  0  0
   15.3928    0.6141   -6.7459 H   0  0  0  0  0  0  0  0  0  0  0  0
   14.7953   -0.3430   -8.1071 H   0  0  0  0  0  0  0  0  0  0  0  0
   16.5311   -0.1288   -7.8781 H   0  0  0  0  0  0  0  0  0  0  0  0
   17.5253   -2.3054   -7.3004 H   0  0  0  0  0  0  0  0  0  0  0  0
   17.2590   -4.3041   -5.6294 H   0  0  0  0  0  0  0  0  0  0  0  0
  1  2  1  0  0  0  0
  2  3  1  0  0  0  0
  3  4  1  0  0  0  0
  4  5  2  0  0  0  0
  5  6  4  0  0  0  0
  6  7  2  0  0  0  0
  7  8  1  0  0  0  0
  8  9  4  0  0  0  0
  9 10  4  0  0  0  0
 10 11  1  0  0  0  0
 10 12  4  0  0  0  0
 12 13  1  0  0  0  0
 13 14  4  0  0  0  0
 14 15  4  0  0  0  0
 15 16  4  0  0  0  0
 16 17  1  0  0  0  0
 17 18  4  0  0  0  0
 18 19  1  0  0  0  0
 18 20  4  0  0  0  0
 20 21  2  0  0  0  0
 17 22  1  0  0  0  0
 21 22  1  0  0  0  0
 13 23  1  0  0  0  0
 16 23  1  0  0  0  0
  8 24  1  0  0  0  0
 12 24  1  0  0  0  0
  4 25  1  0  0  0  0
  7 25  1  0  0  0  0
  1 26  1  0  0  0  0
  1 27  1  0  0  0  0
  1 28  1  0  0  0  0
  2 29  1  0  0  0  0
  2 30  1  0  0  0  0
  3 31  1  0  0  0  0
  3 32  1  0  0  0  0
  5 33  1  0  0  0  0
  6 34  1  0  0  0  0
  9 35  1  0  0  0  0
 11 36  1  0  0  0  0
 11 37  1  0  0  0  0
 11 38  1  0  0  0  0
 14 39  1  0  0  0  0
 15 40  1  0  0  0  0
 19 41  1  0  0  0  0
 19 42  1  0  0  0  0
 19 43  1  0  0  0  0
 20 44  1  0  0  0  0
 21 45  1  0  0  0  0
M  CHG  1   1   1
M  END
