  13

 N          0.5520737414        1.4320152936       -0.0020399739
 C          1.6996962379        0.4834300644       -0.0089040051
 C          1.5672125796       -0.8244071185       -0.7525413036
 C          1.5846819352       -0.8119880954        0.7582734418
 Cl        -2.3941462248       -0.4655008522        0.0112608040
 H          0.5617610854        2.0308794680       -0.8377252641
 H          0.5732311502        2.0322522741        0.8324668013
 H         -0.3403998538        0.9108205178        0.0043478679
 H          2.6785766146        0.9761605625       -0.0238009713
 H          2.4360036677       -1.2116919110       -1.2872593872
 H          0.6259958592       -1.0234443302       -1.2659083856
 H          2.4660183640       -1.1908761561        1.2782903755
 H          0.6560114706       -1.0112901054        1.2939111911
          13
        -17.97362485
 N          0.8206348215        1.4592499926       -0.0001122568
 C          1.8454862183        0.3794293821        0.0109702569
 C          1.5793553165       -0.8922777225       -0.7581319603
 C          1.5533526648       -0.9030677740        0.7524658794
 Cl        -2.3113012392       -0.1302416865       -0.0016065699
 H          0.9149268522        2.0509360069       -0.8355802187
 H          0.8994467685        2.0535703557        0.8350430662
 H         -0.1271292424        1.0472891882       -0.0076010184
 H          2.8764707744        0.7503925516        0.0309717564
 H          2.4113822309       -1.3725587952       -1.2754414504
 H          0.6370973164       -0.9687448143       -1.3015346275
 H          2.3669725978       -1.3938473977        1.2889408488
 H          0.5924038384       -0.9915731687        1.2600638435
