  13

 N          1.5502882057        0.0720380956        0.4143227914
 C          2.9635561493        0.0482934808        0.0406070559
 C          3.3572768481        0.7185555866       -1.2364209407
 C          3.3543197774       -0.7782590042       -1.1419498205
 Cl        -0.2990908017       -0.0261709864       -2.0144971272
 H          1.3078962687        0.9323621537        0.9142539165
 H          1.3003441955       -0.7411476523        0.9848281421
 H          0.9453130890        0.0389596634       -0.4498567536
 H          3.6334462814        0.1010846269        0.8869976386
 H          4.2983720752        1.2408626263       -1.2813650240
 H          2.5688650178        1.1692045116       -1.8181907492
 H          4.2929015086       -1.3070098444       -1.1216493769
 H          2.5631513853       -1.2941132577       -1.6628797517
