25
 xtb: 6.5.1 (fef0646)
N           -1.65963697445917        1.72209039399872       -0.46494549507381
C           -0.40599271845690        1.82766585072010        0.33865228047556
C            0.45755363845932        0.56301425521998        0.22331019542579
C            1.61574370833205        0.54561705566758        1.25017865734924
C            2.42786403094608       -0.75712732973725        1.15326079354953
C            2.97294358332679       -0.96347204760596       -0.27047055403352
C            1.83674264345370       -0.93653555534808       -1.30779062966092
C            1.02193355372230        0.36426119700136       -1.20339140211626
Cl          -3.08325955863197       -1.00655927757316        0.14514097984042
H           -2.22123984411170        2.62831216009432       -0.31973299843805
H           -2.14970955312726        0.95265742469886       -0.29994071806061
H           -1.37693772587997        1.81572899420551       -1.50280043142304
H           -0.65140429657698        2.01458381612643        1.39118032977984
H            0.24151470127588        2.72255339073909        0.06733491067230
H           -0.19978681545631       -0.27748083544330        0.44121576438381
H            1.22862948300902        0.69637255561757        2.26673678944157
H            2.27807192038883        1.40117608869470        1.06293960827687
H            1.77745589646258       -1.60569580864527        1.41955979710629
H            3.23971634664639       -0.77203865056835        1.88962470211743
H            3.53513226406980       -1.90548095732587       -0.33996709251551
H            3.69280631724009       -0.17255201226746       -0.50026779380982
H            1.16536039435728       -1.78829449980063       -1.14011143178170
H            2.22898955863744       -1.06763901918280       -2.32408108536477
H            0.21321313087490        0.38645363246208       -1.94318146998076
H            1.66482999155146        1.22428566779190       -1.45557002955500
