41
0.513
N           -5.73976  -1.30631  -0.27086
C           -4.82645  -1.23144   0.90468
C           -4.46906   0.20070   1.28934
C           -3.70598   0.96976   0.20827
C           -2.32664   0.38948  -0.11051
C           -1.55626   1.21914  -1.13916
C           -0.19311   0.63240  -1.51821
C            0.82595   0.64137  -0.37736
C            2.20637   0.13964  -0.80496
C            3.23171   0.14774   0.32974
C            4.61635  -0.33352  -0.10732
C            5.64261  -0.33281   1.02727
C            7.01927  -0.80300   0.58372
H           -6.60221  -0.76699  -0.10249
H           -6.01910  -2.27781  -0.47789
H           -5.29859  -0.92632  -1.12146
H           -3.91675  -1.80587   0.69684
H           -5.30138  -1.73963   1.75392
H           -3.87713   0.20036   2.21298
H           -5.39276   0.73729   1.53897
H           -3.58604   2.01642   0.51509
H           -4.30446   1.01382  -0.70833
H           -2.42906  -0.63774  -0.47726
H           -1.74509   0.30849   0.81440
H           -1.42135   2.23803  -0.75812
H           -2.17538   1.33075  -2.03802
H            0.22445   1.18629  -2.36831
H           -0.32401  -0.39298  -1.88272
H            0.45974   0.03288   0.45683
H            0.91510   1.65671   0.02588
H            2.57661   0.75068  -1.63639
H            2.11862  -0.87377  -1.21348
H            2.87001  -0.47477   1.15623
H            3.30972   1.15851   0.74660
H            4.97961   0.29322  -0.93009
H            4.53822  -1.34177  -0.53036
H            5.27639  -0.96365   1.84704
H            5.71009   0.67601   1.45372
H            6.98172  -1.81949   0.18815
H            7.73838  -0.79777   1.40551
H            7.41994  -0.16451  -0.20557
