 xtb: 6.5.1 (fef0646)
          01242310113D

 41 40  0     0  0            999 V2000
   -5.7398   -1.3063   -0.2708 N   0  0  0  0  0  0  0  0  0  0  0  0
   -4.8265   -1.2314    0.9047 C   0  0  0  0  0  0  0  0  0  0  0  0
   -4.4691    0.2007    1.2894 C   0  0  0  0  0  0  0  0  0  0  0  0
   -3.7060    0.9698    0.2083 C   0  0  0  0  0  0  0  0  0  0  0  0
   -2.3266    0.3895   -0.1105 C   0  0  0  0  0  0  0  0  0  0  0  0
   -1.5563    1.2191   -1.1392 C   0  0  0  0  0  0  0  0  0  0  0  0
   -0.1931    0.6324   -1.5182 C   0  0  0  0  0  0  0  0  0  0  0  0
    0.8260    0.6414   -0.3774 C   0  0  0  0  0  0  0  0  0  0  0  0
    2.2064    0.1396   -0.8050 C   0  0  0  0  0  0  0  0  0  0  0  0
    3.2317    0.1477    0.3297 C   0  0  0  0  0  0  0  0  0  0  0  0
    4.6163   -0.3335   -0.1073 C   0  0  0  0  0  0  0  0  0  0  0  0
    5.6426   -0.3328    1.0273 C   0  0  0  0  0  0  0  0  0  0  0  0
    7.0193   -0.8030    0.5837 C   0  0  0  0  0  0  0  0  0  0  0  0
   -6.6022   -0.7670   -0.1025 H   0  0  0  0  0  0  0  0  0  0  0  0
   -6.0191   -2.2778   -0.4779 H   0  0  0  0  0  0  0  0  0  0  0  0
   -5.2986   -0.9263   -1.1214 H   0  0  0  0  0  0  0  0  0  0  0  0
   -3.9168   -1.8058    0.6969 H   0  0  0  0  0  0  0  0  0  0  0  0
   -5.3014   -1.7396    1.7539 H   0  0  0  0  0  0  0  0  0  0  0  0
   -3.8771    0.2004    2.2130 H   0  0  0  0  0  0  0  0  0  0  0  0
   -5.3928    0.7373    1.5390 H   0  0  0  0  0  0  0  0  0  0  0  0
   -3.5860    2.0164    0.5151 H   0  0  0  0  0  0  0  0  0  0  0  0
   -4.3045    1.0138   -0.7083 H   0  0  0  0  0  0  0  0  0  0  0  0
   -2.4291   -0.6377   -0.4773 H   0  0  0  0  0  0  0  0  0  0  0  0
   -1.7451    0.3085    0.8144 H   0  0  0  0  0  0  0  0  0  0  0  0
   -1.4213    2.2380   -0.7581 H   0  0  0  0  0  0  0  0  0  0  0  0
   -2.1754    1.3308   -2.0380 H   0  0  0  0  0  0  0  0  0  0  0  0
    0.2244    1.1863   -2.3683 H   0  0  0  0  0  0  0  0  0  0  0  0
   -0.3240   -0.3930   -1.8827 H   0  0  0  0  0  0  0  0  0  0  0  0
    0.4597    0.0329    0.4568 H   0  0  0  0  0  0  0  0  0  0  0  0
    0.9151    1.6567    0.0259 H   0  0  0  0  0  0  0  0  0  0  0  0
    2.5766    0.7507   -1.6364 H   0  0  0  0  0  0  0  0  0  0  0  0
    2.1186   -0.8738   -1.2135 H   0  0  0  0  0  0  0  0  0  0  0  0
    2.8700   -0.4748    1.1562 H   0  0  0  0  0  0  0  0  0  0  0  0
    3.3097    1.1585    0.7466 H   0  0  0  0  0  0  0  0  0  0  0  0
    4.9796    0.2932   -0.9301 H   0  0  0  0  0  0  0  0  0  0  0  0
    4.5382   -1.3418   -0.5304 H   0  0  0  0  0  0  0  0  0  0  0  0
    5.2764   -0.9637    1.8470 H   0  0  0  0  0  0  0  0  0  0  0  0
    5.7101    0.6760    1.4537 H   0  0  0  0  0  0  0  0  0  0  0  0
    6.9817   -1.8195    0.1881 H   0  0  0  0  0  0  0  0  0  0  0  0
    7.7384   -0.7978    1.4055 H   0  0  0  0  0  0  0  0  0  0  0  0
    7.4199   -0.1645   -0.2056 H   0  0  0  0  0  0  0  0  0  0  0  0
  1  2  1  0  0  0  0
  2  3  1  0  0  0  0
  3  4  1  0  0  0  0
  4  5  1  0  0  0  0
  5  6  1  0  0  0  0
  6  7  1  0  0  0  0
  7  8  1  0  0  0  0
  8  9  1  0  0  0  0
  9 10  1  0  0  0  0
 10 11  1  0  0  0  0
 11 12  1  0  0  0  0
 12 13  1  0  0  0  0
  1 14  1  0  0  0  0
  1 15  1  0  0  0  0
  1 16  1  0  0  0  0
  2 17  1  0  0  0  0
  2 18  1  0  0  0  0
  3 19  1  0  0  0  0
  3 20  1  0  0  0  0
  4 21  1  0  0  0  0
  4 22  1  0  0  0  0
  5 23  1  0  0  0  0
  5 24  1  0  0  0  0
  6 25  1  0  0  0  0
  6 26  1  0  0  0  0
  7 27  1  0  0  0  0
  7 28  1  0  0  0  0
  8 29  1  0  0  0  0
  8 30  1  0  0  0  0
  9 31  1  0  0  0  0
  9 32  1  0  0  0  0
 10 33  1  0  0  0  0
 10 34  1  0  0  0  0
 11 35  1  0  0  0  0
 11 36  1  0  0  0  0
 12 37  1  0  0  0  0
 12 38  1  0  0  0  0
 13 39  1  0  0  0  0
 13 40  1  0  0  0  0
 13 41  1  0  0  0  0
M  CHG  1   1   1
M  END
