36
0.796
N           -4.38813  -0.58209   0.49778
C           -4.59293   0.82640   0.05627
C           -3.66335   1.79832   0.77901
C           -2.21355   1.50981   0.52244
C           -1.62896   1.85939  -0.68589
C           -0.30740   1.56539  -0.94183
C            0.47907   0.90787   0.00480
C            1.87380   0.61093  -0.29830
C            2.78221   0.17361   0.58573
C            4.17728  -0.12457   0.28478
C            5.06595  -0.38426   1.33005
C            6.39095  -0.67041   1.08061
C            6.85910  -0.70677  -0.21802
C            5.99599  -0.45741  -1.26682
C            4.67008  -0.17019  -1.02112
C           -0.11830   0.55035   1.21425
C           -1.44096   0.84621   1.46473
Cl          -6.51933  -2.71879  -1.30112
H           -4.57731  -0.68413   1.50451
H           -3.41271  -0.87792   0.33488
H           -5.00508  -1.23837  -0.00862
H           -5.64073   1.11151   0.21157
H           -4.42575   0.89536  -1.02504
H           -3.85445   1.75673   1.85651
H           -3.87995   2.83152   0.48277
H           -2.22354   2.36476  -1.42853
H            0.13281   1.84569  -1.88396
H            2.18358   0.78314  -1.31356
H            2.48266   0.04604   1.61071
H            4.70366  -0.35538   2.34388
H            7.06315  -0.86610   1.90059
H            7.89555  -0.93097  -0.41266
H            6.36035  -0.48936  -2.28112
H            4.00643   0.00946  -1.84884
H            0.45465   0.02354   1.95719
H           -1.88872   0.55812   2.40099
