36
 xtb: 6.5.1 (fef0646)
N           -4.36357499581436       -0.56111730195766        0.52566266355482
C           -4.58686959553323        0.84039091271877        0.07266636346619
C           -3.65634221742472        1.81658651216274        0.78688435147138
C           -2.20907570796433        1.51842469893934        0.52701942090664
C           -1.63328018395277        1.84383450594232       -0.69269198806074
C           -0.31598364553688        1.53772971518649       -0.95511104639056
C            0.47507991871450        0.89371588489728       -0.00283114879674
C            1.86463266121132        0.58173296498733       -0.31329459586212
C            2.79140983126681        0.20992208723714        0.58459924857482
C            4.18251435897212       -0.10456647141006        0.28367573999085
C            5.05972303574011       -0.40380140665520        1.32924311987611
C            6.38085682627049       -0.71061743242827        1.08326997369741
C            6.85871321161778       -0.72388303390372       -0.21246502248766
C            6.00883882492960       -0.42968366592533       -1.26154827247849
C            4.68627206856638       -0.12489469189197       -1.01932302920003
C           -0.11315114182893        0.56038302262311        1.21828025678993
C           -1.43256593124923        0.86656617333685        1.47450133897881
Cl          -6.55909358169115       -2.75909989881820       -1.33156751236711
H           -4.57119514273836       -0.67740049712979        1.51209512117584
H           -3.40442705691808       -0.86810444886761        0.34385898835767
H           -4.99430766768793       -1.23464094557475        0.00005644919510
H           -5.63922756973375        1.11382890837454        0.21751114872404
H           -4.42561077824090        0.89802964811675       -1.02061377374098
H           -3.85170052241014        1.76421122121889        1.85900318031255
H           -3.87706331096440        2.83646502753906        0.48330961554011
H           -2.22590851273417        2.35739412580808       -1.43154070559620
H            0.12843821766272        1.83195304481676       -1.89037485924067
H            2.17381742199237        0.75245470208313       -1.32377334499630
H            2.49030517324514        0.07816580337296        1.61457826091275
H            4.69972255760757       -0.36680440952007        2.34304312245757
H            7.05718611972250       -0.88756688753888        1.90149845450793
H            7.89465125208570       -0.94018311625144       -0.41034499804729
H            6.36645690137419       -0.47469208728830       -2.27896176919920
H            4.01528292839973        0.03505751091652       -1.84889259580146
H            0.45736780980489        0.02857631473562        1.95896261501943
H           -1.88452588963034        0.56933405699367        2.40629817295211
