 xtb: 6.5.1 (fef0646)
          01242315093D

 13 12  0     0  0            999 V2000
    1.5503    0.0720    0.4143 N   0  0  0  0  0  0  0  0  0  0  0  0
    2.9636    0.0483    0.0406 C   0  0  0  0  0  0  0  0  0  0  0  0
    3.3573    0.7186   -1.2364 C   0  0  0  0  0  0  0  0  0  0  0  0
    3.3543   -0.7783   -1.1419 C   0  0  0  0  0  0  0  0  0  0  0  0
   -0.2991   -0.0262   -2.0145 Cl  0  0  0  0  0  0  0  0  0  0  0  0
    1.3079    0.9324    0.9143 H   0  0  0  0  0  0  0  0  0  0  0  0
    1.3003   -0.7411    0.9848 H   0  0  0  0  0  0  0  0  0  0  0  0
    0.9453    0.0390   -0.4499 H   0  0  0  0  0  0  0  0  0  0  0  0
    3.6334    0.1011    0.8870 H   0  0  0  0  0  0  0  0  0  0  0  0
    4.2984    1.2409   -1.2814 H   0  0  0  0  0  0  0  0  0  0  0  0
    2.5689    1.1692   -1.8182 H   0  0  0  0  0  0  0  0  0  0  0  0
    4.2929   -1.3070   -1.1216 H   0  0  0  0  0  0  0  0  0  0  0  0
    2.5632   -1.2941   -1.6629 H   0  0  0  0  0  0  0  0  0  0  0  0
  1  2  1  0  0  0  0
  2  3  1  0  0  0  0
  2  4  1  0  0  0  0
  3  4  1  0  0  0  0
  1  6  1  0  0  0  0
  1  7  1  0  0  0  0
  1  8  1  0  0  0  0
  2  9  1  0  0  0  0
  3 10  1  0  0  0  0
  3 11  1  0  0  0  0
  4 12  1  0  0  0  0
  4 13  1  0  0  0  0
M  END
