 xtb: 6.5.1 (fef0646)
          01232318403D

 13 12  0     0  0            999 V2000
    1.1853    0.3309   -0.1998 N   0  0  0  0  0  0  0  0  0  0  0  0
    2.6041    0.2439    0.0462 C   0  0  0  0  0  0  0  0  0  0  0  0
    3.5781    1.1510   -0.6522 C   0  0  0  0  0  0  0  0  0  0  0  0
    3.4920   -0.3034   -1.0231 C   0  0  0  0  0  0  0  0  0  0  0  0
   -0.1876   -2.2644    0.1407 Cl  0  0  0  0  0  0  0  0  0  0  0  0
    0.7479    1.0174    0.4068 H   0  0  0  0  0  0  0  0  0  0  0  0
    0.4693   -1.0857    0.0030 H   0  0  0  0  0  0  0  0  0  0  0  0
    1.0060    0.5851   -1.1659 H   0  0  0  0  0  0  0  0  0  0  0  0
    2.8097   -0.0322    1.0724 H   0  0  0  0  0  0  0  0  0  0  0  0
    4.4455    1.4981   -0.1132 H   0  0  0  0  0  0  0  0  0  0  0  0
    3.1867    1.8734   -1.3539 H   0  0  0  0  0  0  0  0  0  0  0  0
    4.2980   -0.9589   -0.7356 H   0  0  0  0  0  0  0  0  0  0  0  0
    3.0407   -0.5615   -1.9687 H   0  0  0  0  0  0  0  0  0  0  0  0
  1  2  1  0  0  0  0
  2  3  1  0  0  0  0
  2  4  1  0  0  0  0
  3  4  1  0  0  0  0
  1  6  1  0  0  0  0
  5  7  1  0  0  0  0
  1  8  1  0  0  0  0
  2  9  1  0  0  0  0
  3 10  1  0  0  0  0
  3 11  1  0  0  0  0
  4 12  1  0  0  0  0
  4 13  1  0  0  0  0
M  END
