  17

 N         -2.0036657027       -0.0316457050       -0.1383191402
 C         -0.7157975878       -0.6491359286        0.3026617632
 C          0.5321035844        0.0098635425       -0.3091542216
 C          0.6955538492        1.4602048603        0.1540858195
 C          1.7920204253       -0.8087924779       -0.0022758962
 H         -2.8055751148       -0.5511416833        0.2316641095
 H         -2.0744321768       -0.0279247482       -1.1605207653
 H         -2.0846501750        0.9355940150        0.1904531489
 H         -0.7286836200       -1.7129976806        0.0412950048
 H         -0.6485325066       -0.6105041271        1.3945730440
 H          0.3920710737        0.0180487925       -1.4027951008
 H          0.7955631825        1.5111676368        1.2378342523
 H         -0.1570001774        2.0755573646       -0.1298884569
 H          1.5856303360        1.9168095087       -0.2796173196
 H          1.9703977907       -0.8549339127        1.0717741586
 H          2.6758626059       -0.3678063960       -0.4638832026
 H          1.7037690167       -1.8326392749       -0.3666940540
          17
        -17.28013761
 N         -1.7195522411        0.0003708156        0.4863872037
 C         -0.8659674653        0.0036287811       -0.7393941049
 C          0.6495143589       -0.0001224424       -0.4652045644
 C          1.0983906196        1.2622719484        0.2763366762
 C          1.0924211079       -1.2659709752        0.2735828328
 H         -1.5469241961        0.8298282887        1.0645966551
 H         -1.5443867712       -0.8307708563        1.0614796705
 H         -2.7153273546       -0.0009024988        0.2400438463
 H         -1.1244275846        0.8802813611       -1.3436565998
 H         -1.1275747669       -0.8675486169       -1.3503064503
 H          1.1552168106       -0.0002119826       -1.4474452205
 H          0.6882654244        1.2897839058        1.2845846543
 H          0.7746030126        2.1659416184       -0.2402374073
 H          2.1840263724        1.3041425381        0.3693417444
 H          0.7674222460       -2.1674739865       -0.2466951641
 H          0.6796137128       -1.2952197567        1.2807885351
 H          2.1778143343       -1.3107069714        0.3699422357
