  17

 N          1.0148472832        0.0009462133       -0.0255408086
 C          2.4952856052        0.0635464176       -0.0752216009
 C          2.9986351248        0.5943506504       -1.4198898627
 C          2.5208758409        2.0250924322       -1.6678721836
 C          4.5251297723        0.5350111359       -1.4256872183
 H          0.6999195825       -0.3935070110        0.8677328020
 H          0.6591838831       -0.5838942739       -0.7906048012
 H          0.6229513251        0.9441259302       -0.1262464899
 H          2.8988007056       -0.9351489191        0.0904888850
 H          2.8504527798        0.7162103490        0.7227224516
 H          2.6316665745       -0.0479322458       -2.2262519090
 H          2.7880376532        2.6703992828       -0.8341929153
 H          1.4490832050        2.0800562066       -1.8373166010
 H          3.0022245923        2.4251918442       -2.5567659509
 H          4.9379824946        1.1734327475       -0.6482321782
 H          4.9165076383        0.8748250945       -2.3808853866
 H          4.8788159396       -0.4796558546       -1.2610062325
