  17

 N          0.9294900000        0.0785200000        0.1157500000
 C          2.4119900000        0.0616700000        0.0696200000
 C          2.9172700000       -1.0839500000       -0.8133600000
 C          2.4391200000       -0.9689200000       -2.2625100000
 C          4.4469700000       -1.1179300000       -0.7783800000
 H          0.5920700000        0.8101000000        0.7561300000
 H          0.5484600000       -0.8171900000        0.4473800000
 H          0.5165400000        0.2744700000       -0.8046900000
 H          2.7501100000       -0.0563000000        1.1036900000
 H          2.7281100000        1.0409400000       -0.3025900000
 H          2.5489800000       -2.0349200000       -0.4073300000
 H          2.7444100000       -0.0151600000       -2.7062100000
 H          1.3498700000       -1.0453200000       -2.3330700000
 H          2.8585000000       -1.7757100000       -2.8734400000
 H          4.8741200000       -0.1913300000       -1.1776200000
 H          4.8321300000       -1.9519700000       -1.3744000000
 H          4.8111200000       -1.2445200000        0.2466100000
