 xtb: 6.5.1 (fef0646)
          01242310103D

 18 16  0     0  0            999 V2000
    0.3600   -1.9374   -0.3124 N   0  0  0  0  0  0  0  0  0  0  0  0
   -0.8311   -1.8439    0.5761 C   0  0  0  0  0  0  0  0  0  0  0  0
   -1.8111   -0.7607    0.1353 C   0  0  0  0  0  0  0  0  0  0  0  0
   -1.2392    0.6531    0.2379 C   0  0  0  0  0  0  0  0  0  0  0  0
   -2.2469    1.7242   -0.1506 C   0  0  0  0  0  0  0  0  0  0  0  0
    2.3174    0.9717   -0.1621 Cl  0  0  0  0  0  0  0  0  0  0  0  0
    0.0777   -2.0833   -1.2945 H   0  0  0  0  0  0  0  0  0  0  0  0
    0.9820   -2.7188   -0.0473 H   0  0  0  0  0  0  0  0  0  0  0  0
    0.9269   -1.0684   -0.2806 H   0  0  0  0  0  0  0  0  0  0  0  0
   -0.5060   -1.6527    1.6058 H   0  0  0  0  0  0  0  0  0  0  0  0
   -1.3353   -2.8188    0.6044 H   0  0  0  0  0  0  0  0  0  0  0  0
   -2.7313   -0.8200    0.7312 H   0  0  0  0  0  0  0  0  0  0  0  0
   -2.1258   -0.9518   -0.8981 H   0  0  0  0  0  0  0  0  0  0  0  0
   -0.3464    0.7347   -0.3951 H   0  0  0  0  0  0  0  0  0  0  0  0
   -0.8793    0.8255    1.2611 H   0  0  0  0  0  0  0  0  0  0  0  0
   -2.5911    1.5888   -1.1786 H   0  0  0  0  0  0  0  0  0  0  0  0
   -1.8273    2.7307   -0.0748 H   0  0  0  0  0  0  0  0  0  0  0  0
   -3.1301    1.6880    0.4913 H   0  0  0  0  0  0  0  0  0  0  0  0
  1  2  1  0  0  0  0
  2  3  1  0  0  0  0
  3  4  1  0  0  0  0
  4  5  1  0  0  0  0
  1  7  1  0  0  0  0
  1  8  1  0  0  0  0
  1  9  1  0  0  0  0
  2 10  1  0  0  0  0
  2 11  1  0  0  0  0
  3 12  1  0  0  0  0
  3 13  1  0  0  0  0
  4 14  1  0  0  0  0
  4 15  1  0  0  0  0
  5 16  1  0  0  0  0
  5 17  1  0  0  0  0
  5 18  1  0  0  0  0
M  END
