 xtb: 6.5.1 (fef0646)
          01242314563D

 50 53  0     0  0            999 V2000
    2.0508    1.1579    1.6462 N   0  0  0  0  0  0  0  0  0  0  0  0
    3.1612    1.1620    0.6778 C   0  0  0  0  0  0  0  0  0  0  0  0
    4.0740    2.3729    0.9018 C   0  0  0  0  0  0  0  0  0  0  0  0
    5.2201    2.3463   -0.0501 C   0  0  0  0  0  0  0  0  0  0  0  0
    5.4214    3.1062   -1.1634 C   0  0  0  0  0  0  0  0  0  0  0  0
    6.6062    2.7881   -1.8499 C   0  0  0  0  0  0  0  0  0  0  0  0
    7.3178    1.7738   -1.2614 C   0  0  0  0  0  0  0  0  0  0  0  0
    8.5539    1.2021   -1.6767 C   0  0  0  0  0  0  0  0  0  0  0  0
    9.2846    0.2170   -1.0598 C   0  0  0  0  0  0  0  0  0  0  0  0
   10.4715   -0.1241   -1.7289 C   0  0  0  0  0  0  0  0  0  0  0  0
   11.4163   -1.1357   -1.1677 C   0  0  0  0  0  0  0  0  0  0  0  0
   10.6531    0.6138   -2.8858 C   0  0  0  0  0  0  0  0  0  0  0  0
   11.7031    0.5666   -3.8676 C   0  0  0  0  0  0  0  0  0  0  0  0
   12.5227   -0.5298   -4.0846 C   0  0  0  0  0  0  0  0  0  0  0  0
   13.5366   -0.5474   -5.0453 C   0  0  0  0  0  0  0  0  0  0  0  0
   13.8066    0.5211   -5.8826 C   0  0  0  0  0  0  0  0  0  0  0  0
   14.8505    0.5162   -6.8787 C   0  0  0  0  0  0  0  0  0  0  0  0
   15.3750   -0.5318   -7.6026 C   0  0  0  0  0  0  0  0  0  0  0  0
   14.9095   -1.9505   -7.5625 C   0  0  0  0  0  0  0  0  0  0  0  0
   16.4096   -0.1101   -8.4711 C   0  0  0  0  0  0  0  0  0  0  0  0
   16.6621    1.2214   -8.4047 C   0  0  0  0  0  0  0  0  0  0  0  0
   15.6258    2.0222   -7.2940 S   0  0  0  0  0  0  0  0  0  0  0  0
   12.9890    1.6653   -5.6994 C   0  0  0  0  0  0  0  0  0  0  0  0
   13.0457    2.8087   -6.3849 N   0  0  0  0  0  0  0  0  0  0  0  0
   11.9115    3.8068   -5.8355 S   0  0  0  0  0  0  0  0  0  0  0  0
   11.2869    2.8434   -4.7077 N   0  0  0  0  0  0  0  0  0  0  0  0
   11.9445    1.6836   -4.7123 C   0  0  0  0  0  0  0  0  0  0  0  0
    9.3549    1.7571   -3.1167 S   0  0  0  0  0  0  0  0  0  0  0  0
    6.5087    1.2020    0.1666 S   0  0  0  0  0  0  0  0  0  0  0  0
    0.1156   -1.1019    1.0145 Cl  0  0  0  0  0  0  0  0  0  0  0  0
    1.3957    0.3567    1.4502 H   0  0  0  0  0  0  0  0  0  0  0  0
    1.5007    2.0178    1.5764 H   0  0  0  0  0  0  0  0  0  0  0  0
    2.3980    1.0522    2.6025 H   0  0  0  0  0  0  0  0  0  0  0  0
    2.7479    1.1818   -0.3303 H   0  0  0  0  0  0  0  0  0  0  0  0
    3.7322    0.2403    0.7894 H   0  0  0  0  0  0  0  0  0  0  0  0
    4.4607    2.3531    1.9216 H   0  0  0  0  0  0  0  0  0  0  0  0
    3.5185    3.2978    0.7465 H   0  0  0  0  0  0  0  0  0  0  0  0
    4.7462    3.8783   -1.4843 H   0  0  0  0  0  0  0  0  0  0  0  0
    6.9431    3.2784   -2.7460 H   0  0  0  0  0  0  0  0  0  0  0  0
    8.9716   -0.2482   -0.1410 H   0  0  0  0  0  0  0  0  0  0  0  0
   11.2377   -1.2424   -0.1008 H   0  0  0  0  0  0  0  0  0  0  0  0
   12.4489   -0.8327   -1.3251 H   0  0  0  0  0  0  0  0  0  0  0  0
   11.2615   -2.1090   -1.6326 H   0  0  0  0  0  0  0  0  0  0  0  0
   12.3679   -1.4247   -3.5082 H   0  0  0  0  0  0  0  0  0  0  0  0
   14.1466   -1.4319   -5.1145 H   0  0  0  0  0  0  0  0  0  0  0  0
   13.8466   -2.0056   -7.3402 H   0  0  0  0  0  0  0  0  0  0  0  0
   15.4547   -2.5124   -6.8044 H   0  0  0  0  0  0  0  0  0  0  0  0
   15.0956   -2.4205   -8.5250 H   0  0  0  0  0  0  0  0  0  0  0  0
   16.9393   -0.7844   -9.1198 H   0  0  0  0  0  0  0  0  0  0  0  0
   17.3881    1.7915   -8.9480 H   0  0  0  0  0  0  0  0  0  0  0  0
  1  2  1  0  0  0  0
  2  3  1  0  0  0  0
  3  4  1  0  0  0  0
  4  5  2  0  0  0  0
  5  6  4  0  0  0  0
  6  7  2  0  0  0  0
  7  8  1  0  0  0  0
  8  9  4  0  0  0  0
  9 10  4  0  0  0  0
 10 11  1  0  0  0  0
 10 12  4  0  0  0  0
 12 13  1  0  0  0  0
 13 14  4  0  0  0  0
 14 15  4  0  0  0  0
 15 16  4  0  0  0  0
 16 17  1  0  0  0  0
 17 18  4  0  0  0  0
 18 19  1  0  0  0  0
 18 20  4  0  0  0  0
 20 21  2  0  0  0  0
 17 22  1  0  0  0  0
 21 22  1  0  0  0  0
 16 23  1  0  0  0  0
 23 24  4  0  0  0  0
 24 25  2  0  0  0  0
 25 26  2  0  0  0  0
 13 27  1  0  0  0  0
 23 27  1  0  0  0  0
 26 27  4  0  0  0  0
  8 28  1  0  0  0  0
 12 28  1  0  0  0  0
  4 29  1  0  0  0  0
  7 29  1  0  0  0  0
  1 31  1  0  0  0  0
  1 32  1  0  0  0  0
  1 33  1  0  0  0  0
  2 34  1  0  0  0  0
  2 35  1  0  0  0  0
  3 36  1  0  0  0  0
  3 37  1  0  0  0  0
  5 38  1  0  0  0  0
  6 39  1  0  0  0  0
  9 40  1  0  0  0  0
 11 41  1  0  0  0  0
 11 42  1  0  0  0  0
 11 43  1  0  0  0  0
 14 44  1  0  0  0  0
 15 45  1  0  0  0  0
 19 46  1  0  0  0  0
 19 47  1  0  0  0  0
 19 48  1  0  0  0  0
 20 49  1  0  0  0  0
 21 50  1  0  0  0  0
M  END
