  30

 N         -3.0282533195        1.3740990217        0.2994064961
 C         -1.6859737510        0.8805185722       -0.1156099382
 C         -1.2427028722       -0.3259586617        0.7039886918
 C          0.0731761012       -0.9451838162        0.2235900216
 C          1.2778346792       -0.0154335287        0.3712987445
 C          2.5901718403       -0.6682463924       -0.0631135631
 C          3.7924293035        0.2686588659        0.0606586222
 C          5.1066344721       -0.3846378664       -0.3664223824
 C          6.2933656440        0.5614978846       -0.2666504974
 Cl        -5.2610340537       -1.2714456258       -0.0976547897
 H         -3.3378026006        2.1866016358       -0.2591491046
 H         -3.0291079324        1.6565212562        1.2923099638
 H         -3.7409342037        0.6272182214        0.1918867117
 H         -0.9527496954        1.6902710952       -0.0258067492
 H         -1.7033291247        0.6174823018       -1.1800405596
 H         -2.0409973503       -1.0794292976        0.6842835654
 H         -1.1516900313       -0.0354949807        1.7577825892
 H         -0.0258974091       -1.2480755010       -0.8260792255
 H          0.2715367320       -1.8758678450        0.7718286744
 H          1.3595555253        0.3200645906        1.4126874720
 H          1.1181150499        0.8993969921       -0.2113209412
 H          2.5017226810       -1.0187087415       -1.0991595798
 H          2.7656901888       -1.5745554187        0.5294043725
 H          3.8768505728        0.6260836422        1.0944246811
 H          3.6181982837        1.1713276574       -0.5382092944
 H          5.0077424042       -0.7598400415       -1.3936366508
 H          5.2828131566       -1.2795221268        0.2457819099
 H          6.1526299866        1.4399469606       -0.9007386708
 H          7.2281240749        0.0831856362       -0.5713141392
 H          6.4270719751        0.9216512489        0.7559444639
          30
        -34.76081572
 N         -3.5432833855        0.1759322351       -0.4386830588
 C         -3.1512646614        1.1429689960        0.6244248926
 C         -1.6367491125        1.2569481971        0.7716125973
 C         -0.9452099393        1.7755282670       -0.4893430799
 C          0.5725714023        1.9107824473       -0.3402489971
 C          1.2878321653        0.5709632073       -0.1604556258
 C          2.8085961972        0.7118175709       -0.0823425275
 C          3.5228517131       -0.6260613018        0.1080001124
 C          5.0349487852       -0.4801596501        0.1823609982
 Cl        -1.4072337191       -2.5496123054       -0.0379946651
 H         -4.5567273339       -0.0269662762       -0.4327104372
 H         -3.0373165769       -0.7168856370       -0.3166176474
 H         -3.3041653513        0.5321633052       -1.3817718935
 H         -3.5981656643        0.8334613355        1.5779987896
 H         -3.5824118866        2.1268002156        0.4039855825
 H         -1.2301033600        0.2736005947        1.0356315651
 H         -1.3848330053        1.9093459941        1.6179285081
 H         -1.3857658693        2.7420846079       -0.7665921165
 H         -1.1649976054        1.1078547933       -1.3311794165
 H          0.8019599696        2.5649532477        0.5100672374
 H          0.9911600177        2.4229692779       -1.2163777802
 H          1.0222002918       -0.1018619940       -0.9855608348
 H          0.9239545683        0.0692534683        0.7438928909
 H          3.0739011862        1.3912105457        0.7371737479
 H          3.1808288674        1.2028232342       -0.9901501487
 H          3.2478730742       -1.3037831207       -0.7110752849
 H          3.1444131816       -1.1131380851        1.0169153172
 H          5.4340783643       -0.0301817417       -0.7295672745
 H          5.5351110743       -1.4426294087        0.3198760862
 H          5.3294431007        0.1641757238        1.0138909514
          30
        -34.76113449
 N         -3.5328427749        0.2054495595       -0.4736173055
 C         -3.1439217088        1.1541466491        0.6068401329
 C         -1.6300929565        1.2533224063        0.7708939443
 C         -0.9232183237        1.7965043342       -0.4710536624
 C          0.5938532585        1.9188796696       -0.3045326570
 C          1.3008846420        0.5706592251       -0.1579768310
 C          2.8215516558        0.7019437904       -0.0638923280
 C          3.5298703490       -0.6447271262        0.0814058148
 C          5.0426168649       -0.5073734742        0.1617315881
 Cl        -1.4513207130       -2.5552556538       -0.0244212930
 H         -3.2717585408        0.5661509420       -1.4047555516
 H         -4.5492187219        0.0194572553       -0.4881457391
 H         -3.0415982400       -0.7001616290       -0.3509392694
 H         -3.6030571788        0.8343873336        1.5511969504
 H         -3.5646957145        2.1445671526        0.3960648257
 H         -1.2327643615        0.2611962353        1.0155818237
 H         -1.3816501828        1.8840665401        1.6344876207
 H         -1.3551518694        2.7721358000       -0.7295561138
 H         -1.1390156209        1.1502755703       -1.3304725216
 H          0.8191225756        2.5468169909        0.5663915178
 H          1.0228963147        2.4540768665       -1.1616431069
 H          1.0392028338       -0.0757361342       -1.0050942979
 H          0.9268647357        0.0439527651        0.7277620008
 H          3.0838917862        1.3498338998        0.7816276200
 H          3.2017579522        1.2243575592       -0.9505669696
 H          3.2528269922       -1.2928760279       -0.7608125805
 H          3.1485902644       -1.1611721837        0.9729862191
 H          5.5387976730       -1.4757465268        0.2675378388
 H          5.3393144034        0.1082394312        1.0148550230
 H          5.4442933545       -0.0286945959       -0.7348235574
          30
        -34.76458236
 N         -1.8019828356       -0.3787522226        1.5300552530
 C         -2.8640741413        0.3138814668        0.7459423500
 C         -2.4356026414        0.6694192329       -0.6814555919
 C         -1.7013140180        2.0089944332       -0.8205762366
 C         -0.3604920911        2.1022367708       -0.0891166599
 C          0.6561009608        1.0498295184       -0.5330932550
 C          1.9862714165        1.1508396347        0.2140232086
 C          2.9884784926        0.0765757693       -0.2073770854
 C          4.3050854183        0.1717756153        0.5478906217
 Cl        -0.2727395686       -2.8084238923       -0.4218798229
 H         -2.1549496568       -0.7357032079        2.4334130480
 H         -1.0079302441        0.2430885624        1.7401791428
 H         -1.4191711020       -1.1852415993        1.0012813194
 H         -3.1952606953        1.2157691034        1.2742306294
 H         -3.7453204302       -0.3408280626        0.7147919175
 H         -3.3222268995        0.6851679851       -1.3316225124
 H         -1.8156764633       -0.1405589215       -1.0826778084
 H         -2.3641219989        2.8135168837       -0.4757137217
 H         -1.5313899752        2.2182539115       -1.8855699516
 H         -0.5196760467        2.0337900313        0.9928035141
 H          0.0751829377        3.0994801820       -0.2361071016
 H          0.8295604123        1.1362752200       -1.6130761630
 H          0.2421512670        0.0449406434       -0.3931569997
 H          1.8073135072        1.0827658521        1.2943131067
 H          2.4225430981        2.1456778365        0.0603510168
 H          3.1655934339        0.1498282643       -1.2885640059
 H          2.5395954710       -0.9152717090       -0.0609925887
 H          4.7835852822        1.1406205656        0.3876602246
 H          5.0143756260       -0.6002496048        0.2376865261
 H          4.1520772317        0.0633686430        1.6240570625
          30
        -34.76468682
 N          1.5384842084        0.6046925896        1.4827391847
 C          2.6955630333        0.1171084134        0.6795232204
 C          2.3073992019       -0.3216984149       -0.7368379925
 C          1.8908154437       -1.7926726710       -0.8595929000
 C          0.6519812453       -2.1898561135       -0.0544442840
 C         -0.6067050717       -1.4124619828       -0.4416092703
 C         -1.8303654578       -1.8121695255        0.3841100990
 C         -3.1002066599       -1.0468750601        0.0033083497
 C         -3.0197199325        0.4415164554        0.3089361271
 Cl        -0.2554060799        2.8695752118       -0.4349486577
 H          1.8333330401        0.9973352059        2.3920821982
 H          0.8611608944       -0.1459343125        1.6814061586
 H          1.0241498392        1.3472046017        0.9718310984
 H          3.1990300488       -0.7047212147        1.2023805919
 H          3.4393981498        0.9235343377        0.6287867194
 H          3.1487867411       -0.1347698518       -1.4195101887
 H          1.5046950419        0.3270525288       -1.1060376869
 H          2.7379282269       -2.4258074947       -0.5644536101
 H          1.7119217310       -2.0319298440       -1.9166736527
 H          0.8496174761       -2.0689104283        1.0167410991
 H          0.4569353730       -3.2636548624       -0.1758267884
 H         -0.8164658308       -1.5570780312       -1.5088144508
 H         -0.4266197181       -0.3377937990       -0.3320330853
 H         -1.6164894067       -1.6576620279        1.4489659819
 H         -1.9946004820       -2.8927780697        0.2793684982
 H         -3.9638168000       -1.4822055311        0.5253753008
 H         -3.3072301073       -1.1988875668       -1.0646066671
 H         -2.2339473196        0.9299680239       -0.2709216433
 H         -2.7974513050        0.6167066482        1.3643509287
 H         -3.9557994488        0.9580668893        0.0811583065
          30
        -34.76484817
 N          1.5593787032        0.5868233128        1.4790557036
 C          2.7026900303        0.0744108913        0.6717933027
 C          2.2988087251       -0.3619877238       -0.7409034532
 C          1.8567142376       -1.8260014200       -0.8565862085
 C          0.6122265291       -2.1984258892       -0.0481846410
 C         -0.6336930905       -1.4017009640       -0.4372987425
 C         -1.8651257413       -1.7844938853        0.3849588407
 C         -3.1226518855       -0.9993045739        0.0037848357
 C         -3.0172328353        0.4883672780        0.3052355554
 Cl        -0.2033455759        2.8737529920       -0.4328235224
 H          1.8658435810        0.9777448785        2.3852922712
 H          0.8689923292       -0.1500139250        1.6842807852
 H          1.0559612357        1.3363765626        0.9676273770
 H          3.1930770405       -0.7550118105        1.1950766351
 H          3.4616719654        0.8661730537        0.6143393136
 H          3.1393066370       -0.1914656819       -1.4289871221
 H          1.5052827536        0.2992447856       -1.1078013124
 H          2.6932117345       -2.4723740782       -0.5598234196
 H          1.6724383648       -2.0668482260       -1.9123982234
 H          0.8129896550       -2.0758281252        1.0222302271
 H          0.3987153415       -3.2691808448       -0.1650891602
 H         -0.8432095459       -1.5414632907       -1.5052085929
 H         -0.4375502577       -0.3300377442       -0.3254952819
 H         -1.6508695008       -1.6355710023        1.4505723889
 H         -2.0456603392       -2.8622666024        0.2776496737
 H         -3.9924263106       -1.4189816204        0.5283628501
 H         -3.3340960384       -1.1508452615       -1.0632956566
 H         -2.2281120706        0.9628631661       -0.2814751314
 H         -2.7846966623        0.6626173429        1.3585047615
 H         -3.9466827009        1.0189690507        0.0827208110
