  30

 N          2.8875206387        1.1045802292       -2.5647733876
 C          4.3525578599        0.9400641146       -2.6680199852
 C          4.9467629314        0.4248446721       -1.3635107679
 C          4.5890142364       -1.0291657565       -1.0482538638
 C          5.1442168489       -2.0554648990       -2.0385219583
 C          6.6687132963       -2.0614409604       -2.1349569227
 C          7.1766957335       -3.1976061891       -3.0198058609
 C          8.6986287701       -3.1891919420       -3.1483261964
 C          9.1990350792       -4.2994134354       -4.0647542560
 Cl         0.9967174280       -1.2655358348       -2.1329660455
 H          2.4966516147        1.4905986307       -3.4269297085
 H          2.6469539132        1.7163213448       -1.7808167317
 H          2.3865511334        0.1984208516       -2.3972531959
 H          4.7934229191        1.9091484734       -2.9045729205
 H          4.5707203069        0.2459816633       -3.4771571408
 H          4.5997655581        1.0487138879       -0.5389085584
 H          6.0303330856        0.5231691397       -1.4112685253
 H          3.5046378171       -1.1491458552       -1.0146591845
 H          4.9719019879       -1.2682163202       -0.0537238130
 H          4.7140976057       -1.8938898046       -3.0281311313
 H          4.8072879632       -3.0443416421       -1.7156945775
 H          7.0928195751       -2.1685885794       -1.1337778388
 H          7.0209049184       -1.1165682632       -2.5505753947
 H          6.7310557073       -3.1080928909       -4.0136145155
 H          6.8544370142       -4.1556654662       -2.6036986614
 H          9.1439298871       -3.3080784132       -2.1579470030
 H          9.0211292675       -2.2233534069       -3.5431802769
 H          8.8983002436       -5.2731365786       -3.6838488008
 H         10.2838188382       -4.2784071266       -4.1357349333
 H          8.7861878212       -4.1827296430       -5.0643978440
