 xtb: 6.5.1 (fef0646)
          01242317143D

 29 29  0     0  0            999 V2000
    2.4352   -1.2238   -1.1470 N   0  0  0  0  0  0  0  0  0  0  0  0
    2.3451    0.2278   -1.4442 C   0  0  0  0  0  0  0  0  0  0  0  0
    1.9677    1.0062   -0.1908 C   0  0  0  0  0  0  0  0  0  0  0  0
    0.7606    0.5341    0.4000 O   0  0  0  0  0  0  0  0  0  0  0  0
   -0.4164    0.8676   -0.2640 C   0  0  0  0  0  0  0  0  0  0  0  0
   -0.5062    1.7251   -1.3471 C   0  0  0  0  0  0  0  0  0  0  0  0
   -1.7265    1.9991   -1.9606 C   0  0  0  0  0  0  0  0  0  0  0  0
   -2.8821    1.4305   -1.5082 C   0  0  0  0  0  0  0  0  0  0  0  0
   -2.8613    0.5549   -0.4025 C   0  0  0  0  0  0  0  0  0  0  0  0
   -4.0366   -0.0481    0.0992 C   0  0  0  0  0  0  0  0  0  0  0  0
   -3.9835   -0.8873    1.1726 C   0  0  0  0  0  0  0  0  0  0  0  0
   -2.7610   -1.1632    1.7948 C   0  0  0  0  0  0  0  0  0  0  0  0
   -1.6091   -0.5959    1.3322 C   0  0  0  0  0  0  0  0  0  0  0  0
   -1.6262    0.2727    0.2266 C   0  0  0  0  0  0  0  0  0  0  0  0
    4.8701   -1.6379    1.3427 Cl  0  0  0  0  0  0  0  0  0  0  0  0
    3.1605   -1.4006   -0.4308 H   0  0  0  0  0  0  0  0  0  0  0  0
    2.6601   -1.7853   -1.9806 H   0  0  0  0  0  0  0  0  0  0  0  0
    1.5419   -1.5557   -0.7606 H   0  0  0  0  0  0  0  0  0  0  0  0
    1.5973    0.3895   -2.2274 H   0  0  0  0  0  0  0  0  0  0  0  0
    3.2949    0.5905   -1.8545 H   0  0  0  0  0  0  0  0  0  0  0  0
    1.8894    2.0849   -0.3640 H   0  0  0  0  0  0  0  0  0  0  0  0
    2.7462    0.8792    0.5700 H   0  0  0  0  0  0  0  0  0  0  0  0
    0.3793    2.2015   -1.7260 H   0  0  0  0  0  0  0  0  0  0  0  0
   -1.7566    2.6701   -2.8039 H   0  0  0  0  0  0  0  0  0  0  0  0
   -3.8215    1.6467   -1.9876 H   0  0  0  0  0  0  0  0  0  0  0  0
   -4.9774    0.1658   -0.3788 H   0  0  0  0  0  0  0  0  0  0  0  0
   -4.8867   -1.3412    1.5471 H   0  0  0  0  0  0  0  0  0  0  0  0
   -2.7320   -1.8267    2.6437 H   0  0  0  0  0  0  0  0  0  0  0  0
   -0.6663   -0.8001    1.8100 H   0  0  0  0  0  0  0  0  0  0  0  0
  1  2  1  0  0  0  0
  2  3  1  0  0  0  0
  3  4  1  0  0  0  0
  4  5  1  0  0  0  0
  5  6  4  0  0  0  0
  6  7  4  0  0  0  0
  7  8  2  0  0  0  0
  8  9  4  0  0  0  0
  9 10  4  0  0  0  0
 10 11  2  0  0  0  0
 11 12  4  0  0  0  0
 12 13  2  0  0  0  0
  5 14  4  0  0  0  0
  9 14  4  0  0  0  0
 13 14  4  0  0  0  0
  1 16  1  0  0  0  0
  1 17  1  0  0  0  0
  1 18  1  0  0  0  0
  2 19  1  0  0  0  0
  2 20  1  0  0  0  0
  3 21  1  0  0  0  0
  3 22  1  0  0  0  0
  6 23  1  0  0  0  0
  7 24  1  0  0  0  0
  8 25  1  0  0  0  0
 10 26  1  0  0  0  0
 11 27  1  0  0  0  0
 12 28  1  0  0  0  0
 13 29  1  0  0  0  0
M  END
