 xtb: 6.5.1 (fef0646)
          01242317073D

 22 21  0     0  0            999 V2000
   -2.0021   -1.3912    0.4663 N   0  0  0  0  0  0  0  0  0  0  0  0
   -0.8185   -0.5372    0.1595 C   0  0  0  0  0  0  0  0  0  0  0  0
    0.4291   -0.9771    0.9179 C   0  0  0  0  0  0  0  0  0  0  0  0
    1.6256   -0.1204    0.6189 C   0  0  0  0  0  0  0  0  0  0  0  0
    2.4614   -0.4208   -0.4472 C   0  0  0  0  0  0  0  0  0  0  0  0
    3.5436    0.3843   -0.7429 C   0  0  0  0  0  0  0  0  0  0  0  0
    3.8002    1.5049    0.0213 C   0  0  0  0  0  0  0  0  0  0  0  0
    2.9712    1.8201    1.0789 C   0  0  0  0  0  0  0  0  0  0  0  0
    1.8893    1.0140    1.3732 C   0  0  0  0  0  0  0  0  0  0  0  0
   -4.8190   -0.2715   -1.3310 Cl  0  0  0  0  0  0  0  0  0  0  0  0
   -2.8436   -1.0841   -0.0538 H   0  0  0  0  0  0  0  0  0  0  0  0
   -2.2263   -1.3615    1.4702 H   0  0  0  0  0  0  0  0  0  0  0  0
   -1.8211   -2.3735    0.2187 H   0  0  0  0  0  0  0  0  0  0  0  0
   -1.0432    0.5093    0.3970 H   0  0  0  0  0  0  0  0  0  0  0  0
   -0.6181   -0.5522   -0.9182 H   0  0  0  0  0  0  0  0  0  0  0  0
    0.6592   -2.0210    0.6797 H   0  0  0  0  0  0  0  0  0  0  0  0
    0.2317   -0.9652    1.9951 H   0  0  0  0  0  0  0  0  0  0  0  0
    2.2551   -1.2915   -1.0470 H   0  0  0  0  0  0  0  0  0  0  0  0
    4.1872    0.1385   -1.5723 H   0  0  0  0  0  0  0  0  0  0  0  0
    4.6449    2.1342   -0.2093 H   0  0  0  0  0  0  0  0  0  0  0  0
    3.1671    2.6973    1.6746 H   0  0  0  0  0  0  0  0  0  0  0  0
    1.2368    1.2626    2.1935 H   0  0  0  0  0  0  0  0  0  0  0  0
  1  2  1  0  0  0  0
  2  3  1  0  0  0  0
  3  4  1  0  0  0  0
  4  5  4  0  0  0  0
  5  6  4  0  0  0  0
  6  7  4  0  0  0  0
  7  8  4  0  0  0  0
  4  9  4  0  0  0  0
  8  9  4  0  0  0  0
  1 11  1  0  0  0  0
  1 12  1  0  0  0  0
  1 13  1  0  0  0  0
  2 14  1  0  0  0  0
  2 15  1  0  0  0  0
  3 16  1  0  0  0  0
  3 17  1  0  0  0  0
  5 18  1  0  0  0  0
  6 19  1  0  0  0  0
  7 20  1  0  0  0  0
  8 21  1  0  0  0  0
  9 22  1  0  0  0  0
M  END
