  48

 N          2.4990200000        1.1137400000       -0.0383400000
 C          2.6898600000        1.9442200000       -1.2359600000
 C          4.1600100000        2.3325100000       -1.4007600000
 C          5.0794900000        1.1530600000       -1.5763100000
 C          4.8369200000       -0.0632700000       -2.1817900000
 C          5.9725700000       -0.9213900000       -2.1485000000
 C          7.0748300000       -0.3318500000       -1.5599400000
 C          8.4015800000       -0.8840400000       -1.4268800000
 C          9.3379100000       -0.6288000000       -0.4498400000
 C         10.5981800000       -1.2902300000       -0.6683100000
 C         11.7430900000       -1.1153300000        0.2814900000
 C         10.5788400000       -2.0471000000       -1.8398100000
 C         11.6252800000       -2.8670100000       -2.4407700000
 C         11.8763100000       -3.1667200000       -3.7738400000
 C         11.1711300000       -2.5866500000       -4.8903900000
 N         10.6267400000       -2.1179000000       -5.7991800000
 C         12.9236000000       -4.1414900000       -3.9355400000
 C         13.2886500000       -4.6854900000       -5.2140200000
 N         13.5525200000       -5.1150600000       -6.2586800000
 C         13.5222600000       -4.4944600000       -2.7348700000
 C         14.6541700000       -5.3704900000       -2.4704000000
 C         14.8778500000       -6.2511600000       -1.4094400000
 C         13.9771000000       -6.5693800000       -0.2544600000
 C         16.1653900000       -6.8861400000       -1.5214400000
 C         16.8648800000       -6.4957300000       -2.6348500000
 S         16.0166600000       -5.3307800000       -3.5314800000
 S         12.7727200000       -3.6597400000       -1.4455000000
 S          9.0143500000       -2.0037300000       -2.5565800000
 S          6.6924500000        1.2464800000       -1.0044400000
 Cl         0.0056300000       -0.2757000000        0.2804100000
 H          1.4968900000        0.7564600000        0.0053400000
 H          2.6231200000        1.5742300000        0.8646100000
 H          3.0089500000        0.2240500000       -0.0425200000
 H          2.0630600000        2.8324400000       -1.1138400000
 H          2.3214100000        1.3696900000       -2.0917800000
 H          4.4680900000        2.9288200000       -0.5317200000
 H          4.2599600000        2.9809000000       -2.2801500000
 H          3.8947700000       -0.3492300000       -2.6356100000
 H          5.9774400000       -1.9230800000       -2.5633400000
 H          9.1469600000        0.0212300000        0.3970600000
 H         11.5048600000       -0.3798900000        1.0568400000
 H         12.6345800000       -0.7635700000       -0.2463400000
 H         11.9672700000       -2.0543100000        0.7969400000
 H         12.9620000000       -6.1898100000       -0.3718500000
 H         14.3984300000       -6.1559100000        0.6690500000
 H         13.8927000000       -7.6544500000       -0.1320000000
 H         16.5526600000       -7.6051900000       -0.8083000000
 H         17.8420500000       -6.8309300000       -2.9547200000
