  48

 N          1.7321718428        1.0173163649        0.2751152264
 C          2.8093669357        0.2590710041       -0.3857242827
 C          4.1624967898        0.5750622658        0.2530149295
 C          5.2463922691       -0.3048795401       -0.2737018543
 C          5.4242851203       -0.7948428470       -1.5360035901
 C          6.5704537263       -1.5950511486       -1.6663206134
 C          7.2816917736       -1.7215941197       -0.4977529726
 C          8.4765576156       -2.4549044054       -0.2641457579
 C          9.1900801405       -2.5722456215        0.9055191357
 C         10.3273397517       -3.3831423562        0.8080514132
 C         11.2337646521       -3.6396117843        1.9594021592
 C         10.4927325749       -3.9013642476       -0.4717884144
 C         11.5068914773       -4.7609841947       -0.9603351816
 C         11.6824854570       -5.2400239970       -2.2533611729
 C         10.8812735280       -4.9379626962       -3.3576130997
 N         10.2594972970       -4.7175935461       -4.3014262867
 C         12.8121899682       -6.1075002908       -2.3893505258
 C         13.1182817133       -6.6767276741       -3.6298562508
 N         13.3166904788       -7.1147473403       -4.6755935822
 C         13.5085650822       -6.2975819064       -1.2048866079
 C         14.6677434979       -7.0883832363       -0.9763953301
 C         15.3511015571       -7.3046089617        0.2097654814
 C         14.9932884363       -6.7269345613        1.5333591779
 C         16.4586133856       -8.1597773406        0.0262632712
 C         16.6151771360       -8.5796875019       -1.2555747151
 S         15.4123041378       -7.9510350300       -2.3074747622
 S         12.7550770633       -5.3923774848        0.0739219264
 S          9.2169673627       -3.3670790085       -1.5492064833
 S          6.5141152415       -0.8337827036        0.7836664643
 Cl        -0.8125318543        0.4805142715       -1.2946765358
 H          0.8203055782        0.8368205399       -0.2211189932
 H          1.9089132217        2.0238365906        0.2289919674
 H          1.6216246889        0.7335223825        1.2515624520
 H          2.8097343095        0.5186564134       -1.4430956305
 H          2.5903859245       -0.8048656444       -0.3029540300
 H          4.1106587121        0.4368976378        1.3336547163
 H          4.4299093773        1.6170731548        0.0583671940
 H          4.7580944818       -0.5968211044       -2.3550109577
 H          6.8784154360       -2.0707660240       -2.5816181357
 H          8.8900356933       -2.0800009271        1.8135385623
 H         10.8879636301       -3.0880518720        2.8278471083
 H         12.2512036500       -3.3301405250        1.7253355814
 H         11.2551928790       -4.7011712827        2.2015356671
 H         13.9823038270       -7.0135394567        1.8195027586
 H         15.0364097833       -5.6389733187        1.5033650869
 H         15.6866759881       -7.0847400606        2.2882561761
 H         17.1141395056       -8.4498163589        0.8266202429
 H         17.3668991556       -9.2269805056       -1.6601009321
