21
2.728
N           -4.74893  -0.19722  -1.42710
C           -4.20804  -0.36209  -0.04249
C           -3.29623   0.79966   0.39247
C           -1.82275   0.50871   0.30366
C           -1.28173  -0.16989  -0.77750
C            0.07575  -0.41090  -0.85872
C            0.90949   0.03267   0.14023
Br           2.76966  -0.29727   0.03105
C            0.39680   0.71622   1.21701
C           -0.96183   0.95518   1.29670
H           -3.99843  -0.07324  -2.11504
H           -5.35424   0.62904  -1.48065
H           -5.30415  -1.01194  -1.71094
H           -3.66267  -1.31012   0.03478
H           -5.05746  -0.46176   0.64576
H           -3.53044   1.08825   1.42361
H           -3.51763   1.68507  -0.21157
H           -1.92868  -0.51737  -1.56213
H            0.48976  -0.94404  -1.70037
H            1.06184   1.06348   1.99239
H           -1.35962   1.49761   2.13782
