21
 xtb: 6.5.1 (fef0646)
N           -4.76690671597121       -0.29227977546634       -1.38525082894030
C           -4.20370592097990       -0.35092849121530       -0.00090818593048
C           -3.28967224579431        0.84371356142035        0.34605680708078
C           -1.81784312058595        0.54138119809711        0.27679305594985
C           -1.26602690034073       -0.08251980121819       -0.83352794462963
C            0.08990086267912       -0.33231098504603       -0.90767262936800
C            0.91074907815947        0.04015016435973        0.13403901865020
Br           2.76666196787271       -0.32274032197412        0.05274555767100
C            0.38707719949856        0.66428993384413        1.24306943819165
C           -0.96978118075028        0.91941250582231        1.31090162505747
H           -4.00567036652075       -0.16445205445912       -2.11815652824936
H           -5.31929548624520        0.63095830275078       -1.49611061573021
H           -5.35180037752409       -1.02225324030609       -1.65976161224167
H           -3.66105935049703       -1.30548760465105        0.06278966566939
H           -5.05387113207924       -0.44475937554383        0.66262475692847
H           -3.52828691641023        1.12252517115878        1.40419678333870
H           -3.51569443428033        1.68445982960130       -0.24462292102952
H           -1.92189071011947       -0.47440892286458       -1.58797750458114
H            0.49631093901337       -0.90837253510437       -1.72151758575828
H            1.05640637848239        1.03348397850540        2.00887172695943
H           -1.36406802529655        1.47537960295106        2.14855487439609
