  30

 N         -2.9908072205        1.6924135726        0.0707349613
 C         -1.7100473087        1.0737921349       -0.2535418590
 C         -1.3060470374        0.0052564091        0.7574854331
 C         -0.0288207696       -0.7475314779        0.3773216815
 C          1.2194868842        0.1350632225        0.3603141121
 C          2.4975824659       -0.6470052325        0.0583584265
 C          3.7424309187        0.2386642060        0.0153631954
 C          5.0247771332       -0.5451019638       -0.2661222712
 C          6.2569684740        0.3449479098       -0.3259135275
 Cl        -4.9700515283       -0.9446975561       -0.3804695116
 H         -3.1891842991        2.4636693060       -0.5589302220
 H         -2.9471095442        2.0920169335        1.0014258868
 H         -4.1832372117        0.1230890265       -0.2001872085
 H         -0.9282173891        1.8406063849       -0.3259091570
 H         -1.7789518517        0.6247831886       -1.2514876913
 H         -2.1372067815       -0.7003142742        0.8758479352
 H         -1.1825776015        0.4678128965        1.7435343820
 H         -0.1573812591       -1.2156261919       -0.6058180885
 H          0.1341892807       -1.5814252903        1.0716933955
 H          1.3210070817        0.6478687950        1.3242462528
 H          1.1015274099        0.9361444347       -0.3781184767
 H          2.3888645779       -1.1761966664       -0.8958990659
 H          2.6323165224       -1.4362994012        0.8075626790
 H          3.8423911814        0.7802485961        0.9636539015
 H          3.6129914654        1.0186089483       -0.7446827047
 H          4.9120976984       -1.0983799358       -1.2074215312
 H          5.1531406701       -1.3178947462        0.5028778789
 H          6.1637046400        1.0957389262       -1.1127669390
 H          7.1668909056       -0.2258439121       -0.5231812228
 H          6.4029087998        0.8809363849        0.6136697496
          30
        -34.80172361
 N         -3.1742920020        1.2957341660       -0.2167815127
 C         -1.8131371337        0.9216391780        0.1420553255
 C         -0.8376979786        2.0933123329        0.1007762599
 C          0.5762787053        1.7280450392        0.5598592281
 C          1.2814140171        0.7337907516       -0.3629540285
 C          2.7118140103        0.4230532587        0.0780842446
 C          3.4150300828       -0.5732362453       -0.8438856888
 C          4.8645310014       -0.8621162505       -0.4430988081
 C          4.9885872909       -1.5812404383        0.8921299501
 Cl        -4.6220449543       -1.6911877727        0.0264631425
 H         -3.1759939925        1.7171970800       -1.1393400450
 H         -3.5018634932        2.0192586583        0.4134356972
 H         -4.0456206886       -0.4868941257       -0.0734157013
 H         -1.4798373668        0.1209393056       -0.5292060852
 H         -1.8191080690        0.4727103984        1.1426309341
 H         -1.2356756585        2.9067134418        0.7197234654
 H         -0.8017002278        2.4997484144       -0.9166504730
 H          0.5374169481        1.3176631487        1.5758856712
 H          1.1893090084        2.6346371962        0.6411197595
 H          1.2881315321        1.1240067659       -1.3876731741
 H          0.7084599473       -0.1987945071       -0.4168058031
 H          2.6995480032        0.0393368053        1.1047029763
 H          3.2924287616        1.3520020467        0.1276694963
 H          3.3788839350       -0.1922413494       -1.8726579459
 H          2.8474430185       -1.5113203980       -0.8669036035
 H          5.4255515052        0.0808008800       -0.4136252501
 H          5.3517210526       -1.4584719831       -1.2266906284
 H          4.5986918558       -0.9768164088        1.7123621117
 H          6.0266833528       -1.8197172381        1.1334235002
 H          4.4302052274       -2.5189870003        0.8883911242
          30
        -34.80271471
 N         -3.2284175327        1.1625833897       -0.5421352861
 C         -1.9029692132        0.9052318816        0.0039356795
 C         -0.9546883616        2.0911996938       -0.1379363778
 C          0.4177547346        1.8563950372        0.4982773912
 C          1.2331871056        0.7630446479       -0.1925368078
 C          2.6252234537        0.5853653352        0.4134411469
 C          3.4388800600       -0.5112054231       -0.2732091432
 C          4.8331203250       -0.6884764845        0.3288682741
 C          5.6357666381       -1.7827202096       -0.3585538599
 Cl        -4.6690710250       -1.7558652652        0.1496325521
 H         -3.1456889805        1.4100792087       -1.5219085511
 H         -3.6290707940        1.9765738209       -0.0883711943
 H         -4.0949951076       -0.5794912125       -0.1319379607
 H         -1.4852518742        0.0186510666       -0.4882695507
 H         -2.0011007690        0.6268621224        1.0601057829
 H         -1.4276827515        2.9767336953        0.3038969719
 H         -0.8320966871        2.3327476727       -1.2001127603
 H          0.2925891135        1.6035542602        1.5578244190
 H          0.9968039140        2.7886083102        0.4935072276
 H          1.3236609185        0.9913895996       -1.2612737577
 H          0.6944889612       -0.1903329199       -0.1493935293
 H          2.5354052381        0.3625346550        1.4834199360
 H          3.1721235932        1.5346460034        0.3656940543
 H          3.5255374763       -0.2897542101       -1.3437821110
 H          2.8927251937       -1.4608956176       -0.2232315308
 H          4.7402289843       -0.9045778758        1.4010808087
 H          5.3737639949        0.2655371020        0.2783927519
 H          5.1299473785       -2.7473574475       -0.2874960770
 H          6.6295498820       -1.9000191303        0.0789663185
 H          5.7682001036       -1.5674351688       -1.4204115174
