 xtb: 6.5.1 (fef0646)
          01242310123D

 43 46  0     0  0            999 V2000
    4.2887   -0.8175    1.5255 N   0  0  0  0  0  0  0  0  0  0  0  0
    5.2471   -0.1263    0.6300 C   0  0  0  0  0  0  0  0  0  0  0  0
    4.6158    0.2529   -0.7023 C   0  0  0  0  0  0  0  0  0  0  0  0
    3.5066    1.1377   -0.5407 O   0  0  0  0  0  0  0  0  0  0  0  0
    2.2470    0.5730   -0.4497 C   0  0  0  0  0  0  0  0  0  0  0  0
    1.9522   -0.7840   -0.5244 C   0  0  0  0  0  0  0  0  0  0  0  0
    0.6597   -1.2517   -0.4177 C   0  0  0  0  0  0  0  0  0  0  0  0
   -0.4273   -0.3983   -0.2362 C   0  0  0  0  0  0  0  0  0  0  0  0
   -0.1775    1.0004   -0.1576 C   0  0  0  0  0  0  0  0  0  0  0  0
   -1.2423    1.9294    0.0229 C   0  0  0  0  0  0  0  0  0  0  0  0
   -0.9359    3.2828    0.0992 C   0  0  0  0  0  0  0  0  0  0  0  0
    0.3708    3.7392    0.0012 C   0  0  0  0  0  0  0  0  0  0  0  0
    1.3998    2.8541   -0.1766 C   0  0  0  0  0  0  0  0  0  0  0  0
    1.1542    1.4792   -0.2606 C   0  0  0  0  0  0  0  0  0  0  0  0
   -1.7891   -0.8916   -0.1273 C   0  0  0  0  0  0  0  0  0  0  0  0
   -2.0924   -2.2472   -0.1885 C   0  0  0  0  0  0  0  0  0  0  0  0
   -3.3994   -2.7079   -0.0889 C   0  0  0  0  0  0  0  0  0  0  0  0
   -4.4336   -1.8296    0.0730 C   0  0  0  0  0  0  0  0  0  0  0  0
   -4.1904   -0.4443    0.1434 C   0  0  0  0  0  0  0  0  0  0  0  0
   -5.2466    0.4720    0.3086 C   0  0  0  0  0  0  0  0  0  0  0  0
   -4.9963    1.8131    0.3755 C   0  0  0  0  0  0  0  0  0  0  0  0
   -3.6946    2.2927    0.2831 C   0  0  0  0  0  0  0  0  0  0  0  0
   -2.6118    1.4378    0.1202 C   0  0  0  0  0  0  0  0  0  0  0  0
   -2.8578    0.0366    0.0454 C   0  0  0  0  0  0  0  0  0  0  0  0
    3.3075   -3.8114   -0.0581 Cl  0  0  0  0  0  0  0  0  0  0  0  0
    3.4450   -0.2393    1.6570 H   0  0  0  0  0  0  0  0  0  0  0  0
    4.6902   -1.0100    2.4579 H   0  0  0  0  0  0  0  0  0  0  0  0
    3.9871   -1.7231    1.1186 H   0  0  0  0  0  0  0  0  0  0  0  0
    6.1326   -0.7546    0.4738 H   0  0  0  0  0  0  0  0  0  0  0  0
    5.6049    0.7842    1.1251 H   0  0  0  0  0  0  0  0  0  0  0  0
    4.3148   -0.6230   -1.2826 H   0  0  0  0  0  0  0  0  0  0  0  0
    5.3394    0.7862   -1.3308 H   0  0  0  0  0  0  0  0  0  0  0  0
    2.7445   -1.4976   -0.6512 H   0  0  0  0  0  0  0  0  0  0  0  0
    0.4975   -2.3134   -0.4760 H   0  0  0  0  0  0  0  0  0  0  0  0
   -1.7213    4.0045    0.2382 H   0  0  0  0  0  0  0  0  0  0  0  0
    0.5762    4.7964    0.0641 H   0  0  0  0  0  0  0  0  0  0  0  0
    2.4172    3.1998   -0.2563 H   0  0  0  0  0  0  0  0  0  0  0  0
   -1.3044   -2.9683   -0.3157 H   0  0  0  0  0  0  0  0  0  0  0  0
   -3.5980   -3.7670   -0.1408 H   0  0  0  0  0  0  0  0  0  0  0  0
   -5.4467   -2.1885    0.1487 H   0  0  0  0  0  0  0  0  0  0  0  0
   -6.2559    0.1015    0.3805 H   0  0  0  0  0  0  0  0  0  0  0  0
   -5.8135    2.5061    0.5008 H   0  0  0  0  0  0  0  0  0  0  0  0
   -3.5360    3.3551    0.3388 H   0  0  0  0  0  0  0  0  0  0  0  0
  1  2  1  0  0  0  0
  2  3  1  0  0  0  0
  3  4  1  0  0  0  0
  4  5  1  0  0  0  0
  5  6  4  0  0  0  0
  6  7  4  0  0  0  0
  7  8  4  0  0  0  0
  8  9  4  0  0  0  0
  9 10  4  0  0  0  0
 10 11  4  0  0  0  0
 11 12  4  0  0  0  0
 12 13  2  0  0  0  0
  5 14  4  0  0  0  0
  9 14  4  0  0  0  0
 13 14  4  0  0  0  0
  8 15  1  0  0  0  0
 15 16  4  0  0  0  0
 16 17  4  0  0  0  0
 17 18  2  0  0  0  0
 18 19  4  0  0  0  0
 19 20  4  0  0  0  0
 20 21  2  0  0  0  0
 21 22  4  0  0  0  0
 10 23  1  0  0  0  0
 22 23  4  0  0  0  0
 15 24  4  0  0  0  0
 19 24  4  0  0  0  0
 23 24  4  0  0  0  0
  1 26  1  0  0  0  0
  1 27  1  0  0  0  0
  1 28  1  0  0  0  0
  2 29  1  0  0  0  0
  2 30  1  0  0  0  0
  3 31  1  0  0  0  0
  3 32  1  0  0  0  0
  6 33  1  0  0  0  0
  7 34  1  0  0  0  0
 11 35  1  0  0  0  0
 12 36  1  0  0  0  0
 13 37  1  0  0  0  0
 16 38  1  0  0  0  0
 17 39  1  0  0  0  0
 18 40  1  0  0  0  0
 20 41  1  0  0  0  0
 21 42  1  0  0  0  0
 22 43  1  0  0  0  0
M  END
