 xtb: 6.5.1 (fef0646)
          01242310053D

 28 28  0     0  0            999 V2000
   -2.7680    0.2282    1.4794 N   0  0  0  0  0  0  0  0  0  0  0  0
   -3.0011   -0.8554    0.4898 C   0  0  0  0  0  0  0  0  0  0  0  0
   -2.2158   -0.6262   -0.7996 C   0  0  0  0  0  0  0  0  0  0  0  0
   -0.7445   -0.4613   -0.5586 C   0  0  0  0  0  0  0  0  0  0  0  0
    0.0706   -1.5561   -0.4318 C   0  0  0  0  0  0  0  0  0  0  0  0
    1.4504   -1.4171   -0.1642 C   0  0  0  0  0  0  0  0  0  0  0  0
    2.3061   -2.5340   -0.0355 C   0  0  0  0  0  0  0  0  0  0  0  0
    3.6353   -2.3656    0.2246 C   0  0  0  0  0  0  0  0  0  0  0  0
    4.1724   -1.0807    0.3686 C   0  0  0  0  0  0  0  0  0  0  0  0
    3.3732    0.0195    0.2513 C   0  0  0  0  0  0  0  0  0  0  0  0
    1.9927   -0.1191   -0.0176 C   0  0  0  0  0  0  0  0  0  0  0  0
    1.1342    0.9952   -0.1400 C   0  0  0  0  0  0  0  0  0  0  0  0
   -0.1942    0.8239   -0.3997 C   0  0  0  0  0  0  0  0  0  0  0  0
   -2.8418    3.2461   -0.2773 Cl  0  0  0  0  0  0  0  0  0  0  0  0
   -1.7870    0.2213    1.8072 H   0  0  0  0  0  0  0  0  0  0  0  0
   -3.3780    0.1468    2.3102 H   0  0  0  0  0  0  0  0  0  0  0  0
   -2.9313    1.1549    1.0479 H   0  0  0  0  0  0  0  0  0  0  0  0
   -4.0740   -0.9345    0.2728 H   0  0  0  0  0  0  0  0  0  0  0  0
   -2.7160   -1.8173    0.9330 H   0  0  0  0  0  0  0  0  0  0  0  0
   -2.5949    0.2692   -1.3061 H   0  0  0  0  0  0  0  0  0  0  0  0
   -2.3783   -1.4512   -1.5041 H   0  0  0  0  0  0  0  0  0  0  0  0
   -0.3470   -2.5433   -0.5338 H   0  0  0  0  0  0  0  0  0  0  0  0
    1.8930   -3.5232   -0.1462 H   0  0  0  0  0  0  0  0  0  0  0  0
    4.2788   -3.2261    0.3204 H   0  0  0  0  0  0  0  0  0  0  0  0
    5.2249   -0.9628    0.5740 H   0  0  0  0  0  0  0  0  0  0  0  0
    3.7865    1.0084    0.3630 H   0  0  0  0  0  0  0  0  0  0  0  0
    1.5428    1.9852   -0.0204 H   0  0  0  0  0  0  0  0  0  0  0  0
   -0.8466    1.6793   -0.4722 H   0  0  0  0  0  0  0  0  0  0  0  0
  1  2  1  0  0  0  0
  2  3  1  0  0  0  0
  3  4  1  0  0  0  0
  4  5  2  0  0  0  0
  5  6  4  0  0  0  0
  6  7  4  0  0  0  0
  7  8  2  0  0  0  0
  8  9  4  0  0  0  0
  9 10  2  0  0  0  0
  6 11  4  0  0  0  0
 10 11  4  0  0  0  0
 11 12  4  0  0  0  0
  4 13  4  0  0  0  0
 12 13  2  0  0  0  0
  1 15  1  0  0  0  0
  1 16  1  0  0  0  0
  1 17  1  0  0  0  0
  2 18  1  0  0  0  0
  2 19  1  0  0  0  0
  3 20  1  0  0  0  0
  3 21  1  0  0  0  0
  5 22  1  0  0  0  0
  7 23  1  0  0  0  0
  8 24  1  0  0  0  0
  9 25  1  0  0  0  0
 10 26  1  0  0  0  0
 12 27  1  0  0  0  0
 13 28  1  0  0  0  0
M  END
