  50

 N          3.1623055689       -0.7162550489        0.2273162337
 C          2.7817473975       -1.0047199484        1.6210550234
 C          3.8821009775       -1.7931497975        2.3409975488
 C          5.0904537465       -0.9567320186        2.5892859284
 C          5.4452752093       -0.2962100270        3.7275443520
 C          6.6315346060        0.4477042190        3.5985804899
 C          7.1966601353        0.3638079968        2.3516499257
 C          8.3791662542        0.9882956627        1.8642025475
 C          8.9549193064        0.8657353727        0.6238451978
 C         10.1214038498        1.6290022372        0.4537147667
 C         10.9001043469        1.5752783245       -0.8194760417
 C         10.4458185719        2.3544287784        1.5880287776
 C         11.5267450078        3.2690668860        1.8370176692
 C         12.2574204545        3.9121780559        0.8496594626
 C         13.3112554693        4.7864254993        1.1248198923
 C         13.7141028988        5.1108830448        2.4089651765
 C         14.8047105330        6.0062000322        2.7084254509
 C         15.3002748162        7.0706944884        1.9870912143
 C         14.7467927124        7.6045336108        0.7066856172
 C         16.4055083279        7.6770936715        2.6295822544
 C         16.7385288757        7.0869723157        3.8052830835
 S         15.6964147785        5.7782471023        4.1906690822
 C         12.9874528078        4.4840223582        3.4534410452
 N         13.1745247043        4.6408371548        4.7648112733
 S         12.1051120914        3.7424389016        5.5606097660
 N         11.3468405119        3.1127081499        4.2869834642
 C         11.9029057464        3.5841311841        3.1710059334
 S          9.3094642387        2.0522763599        2.8782973907
 S          6.2496991998       -0.6642070034        1.3234726885
 Cl         1.1773821611        1.3039079638       -0.9007738437
 H          2.4704989408       -0.0550773068       -0.2082292202
 H          3.1938726910       -1.5697103115       -0.3348042814
 H          4.0827814129       -0.2641333968        0.1938357202
 H          1.8552146413       -1.5759909616        1.6194245037
 H          2.5988566581       -0.0596084293        2.1316769129
 H          4.1530929393       -2.6659648021        1.7474675512
 H          3.4942831542       -2.1340604377        3.2999805473
 H          4.8757137379       -0.3397206113        4.6379720575
 H          7.0736843345        1.0315805996        4.3865047329
 H          8.5480297570        0.2369795346       -0.1492031793
 H         10.6324306251        0.6760192026       -1.3681135260
 H         11.9695755201        1.5631437356       -0.6222294022
 H         10.6686972834        2.4339254777       -1.4493048838
 H         12.0009543314        3.7551848719       -0.1827241889
 H         13.8458198454        5.2038269972        0.2888761884
 H         13.6687323630        7.4695953426        0.6613568529
 H         15.1987418592        7.1003484659       -0.1473908937
 H         14.9748131050        8.6646041334        0.6277125630
 H         16.9260201043        8.5243586875        2.2207899639
 H         17.5282013901        7.3452336818        4.4813306107
