  29

 N         -4.9946457476        0.3599481650        0.0003158516
 C         -3.7585901755       -0.4801959898        0.0007690152
 C         -2.4841475519        0.3553755055       -0.0005012152
 C         -1.2051290678       -0.4867470613       -0.0003277053
 C          0.0724995152        0.3561259099       -0.0005075533
 C          1.3537183470       -0.4810658504       -0.0005522006
 C          2.6287053655        0.3656425838       -0.0000900680
 C          3.9123014506       -0.4681950457        0.0001368943
 C          5.1759085445        0.3804175053        0.0006509427
 H         -5.8500014540       -0.2158003525        0.0013330350
 H         -5.0293145494        0.9680372396       -0.8309156749
 H         -5.0286271009        0.9699458942        0.8301771268
 H         -3.7696091850       -1.1438821867       -0.8713125515
 H         -3.7690333435       -1.1420808148        0.8742294035
 H         -2.4860790432        1.0224748601        0.8679831566
 H         -2.4868129151        1.0210327569       -0.8700909416
 H         -1.2048734930       -1.1529886897       -0.8695949684
 H         -1.2048529820       -1.1525612297        0.8692661339
 H          0.0711103182        1.0224976754        0.8688245278
 H          0.0709682721        1.0224202662       -0.8698961564
 H          1.3563927567       -1.1470418940       -0.8702252674
 H          1.3561173191       -1.1475125199        0.8687585904
 H          2.6256262976        1.0319099780        0.8694414210
 H          2.6260881372        1.0321952138       -0.8694029599
 H          3.9105965218       -1.1356633053       -0.8698702592
 H          3.9100949128       -1.1359548599        0.8699196910
 H          5.2191340299        1.0263988540       -0.8769481417
 H          6.0794989134       -0.2314055358        0.0008409640
 H          5.2185920050        1.0261372108        0.8784695569
          29
        -29.82521588
 N         -3.6701294982       -1.2211062986       -0.5269472660
 C         -3.2762075651       -0.4348990327        0.6804225319
 C         -2.7294379972        0.9485213970        0.3402033602
 C         -1.4184425762        0.9342330198       -0.4533256079
 C         -0.2313641655        0.3463447262        0.3137877727
 C          1.0894298551        0.4440336279       -0.4540011155
 C          2.2826957913       -0.1297883113        0.3135684763
 C          3.6058037546       -0.0112519384       -0.4472691208
 C          4.7911761749       -0.5791690569        0.3203972798
 H         -2.8625906957       -1.4164626799       -1.1360699451
 H         -4.3662528914       -0.7098816608       -1.0892398907
 H         -4.0882281627       -2.1286143818       -0.2709913483
 H         -2.5396286359       -1.0016354912        1.2599454047
 H         -4.1507169585       -0.3402376055        1.3366906675
 H         -2.5817910515        1.5254039709        1.2608489467
 H         -3.4937302172        1.4967299163       -0.2231739239
 H         -1.1660431586        1.9559038511       -0.7615182468
 H         -1.5568491565        0.3849089885       -1.3900819613
 H         -0.4293045639       -0.7009331230        0.5642171176
 H         -0.1306919746        0.8578290972        1.2773072385
 H          1.2882861778        1.4914665886       -0.7061699453
 H          0.9923895519       -0.0680851980       -1.4175520919
 H          2.0921102170       -1.1810859146        0.5559193742
 H          2.3721146305        0.3748975392        1.2819159250
 H          3.7891541742        1.0421720410       -0.6914744430
 H          3.5120926357       -0.5149620006       -1.4169902422
 H          4.6503551666       -1.6384293797        0.5390527304
 H          4.9269083386       -0.0674829251        1.2739390058
 H          5.7240748659       -0.4819717734       -0.2380043445
