  29

 N          0.8636446691        0.0539077648       -0.1127081027
 C          2.3629716306        0.0479329257       -0.1017923542
 C          2.8840636224       -0.6085871028        1.1674750871
 C          4.4156736712       -0.6190669353        1.1878143775
 C          4.9532182682       -1.2776665653        2.4575623358
 C          6.4801576082       -1.2917750432        2.4859876269
 C          7.0166140244       -1.9506212235        3.7547733345
 C          8.5431530717       -1.9685441744        3.7893875233
 C          9.0696587870       -2.6272628979        5.0582595355
 H          0.4925862634        0.4940680791       -0.9639735849
 H          0.5142304241        0.5673575040        0.7074560491
 H          0.5139127289       -0.9120185916       -0.0573440772
 H          2.7119657476        1.0792418882       -0.1673609585
 H          2.7115998331       -0.4948070787       -0.9813289111
 H          2.5254268125       -1.6378020320        1.2308892429
 H          2.5253662843       -0.0656957175        2.0441238652
 H          4.7877168039        0.4048090728        1.1287665105
 H          4.7877713768       -1.1605875081        0.3168820118
 H          4.5841215680       -2.3034112143        2.5192457720
 H          4.5834370005       -0.7378372598        3.3316473328
 H          6.8534356506       -0.2672781186        2.4262333735
 H          6.8540926298       -1.8317700781        1.6135880940
 H          6.6440984029       -2.9756610746        3.8156491769
 H          6.6440176391       -1.4108468263        4.6282715076
 H          8.9175166576       -0.9443215040        3.7299041237
 H          8.9175498755       -2.5092419572        2.9174887060
 H          8.7243264766       -2.0909222980        5.9392426220
 H         10.1564105456       -2.6296798618        5.0628736636
 H          8.7242819264       -3.6563821713        5.1265661164
