 xtb: 6.5.1 (fef0646)
          02032320513D

 29 28  0     0  0            999 V2000
   -4.2648   -0.9540    0.3428 N   0  0  0  0  0  0  0  0  0  0  0  0
   -3.8724    0.3080   -0.3516 C   0  0  0  0  0  0  0  0  0  0  0  0
   -2.5288    0.8601    0.1169 C   0  0  0  0  0  0  0  0  0  0  0  0
   -1.3405   -0.0265   -0.2569 C   0  0  0  0  0  0  0  0  0  0  0  0
    0.0060    0.5719    0.1553 C   0  0  0  0  0  0  0  0  0  0  0  0
    1.1963   -0.3109   -0.2231 C   0  0  0  0  0  0  0  0  0  0  0  0
    2.5435    0.2969    0.1708 C   0  0  0  0  0  0  0  0  0  0  0  0
    3.7357   -0.5826   -0.2113 C   0  0  0  0  0  0  0  0  0  0  0  0
    5.0734    0.0322    0.1738 C   0  0  0  0  0  0  0  0  0  0  0  0
   -4.2943   -0.8142    1.3585 H   0  0  0  0  0  0  0  0  0  0  0  0
   -3.5963   -1.7077    0.1491 H   0  0  0  0  0  0  0  0  0  0  0  0
   -5.1913   -1.2756    0.0408 H   0  0  0  0  0  0  0  0  0  0  0  0
   -4.6593    1.0557   -0.1950 H   0  0  0  0  0  0  0  0  0  0  0  0
   -3.8426    0.1333   -1.4328 H   0  0  0  0  0  0  0  0  0  0  0  0
   -2.5512    1.0006    1.2025 H   0  0  0  0  0  0  0  0  0  0  0  0
   -2.3710    1.8615   -0.3005 H   0  0  0  0  0  0  0  0  0  0  0  0
   -1.3443   -0.2077   -1.3373 H   0  0  0  0  0  0  0  0  0  0  0  0
   -1.4536   -1.0141    0.2015 H   0  0  0  0  0  0  0  0  0  0  0  0
    0.0121    0.7536    1.2357 H   0  0  0  0  0  0  0  0  0  0  0  0
    0.1233    1.5602   -0.3025 H   0  0  0  0  0  0  0  0  0  0  0  0
    1.1821   -0.5021   -1.3018 H   0  0  0  0  0  0  0  0  0  0  0  0
    1.0864   -1.2956    0.2443 H   0  0  0  0  0  0  0  0  0  0  0  0
    2.5589    0.4875    1.2495 H   0  0  0  0  0  0  0  0  0  0  0  0
    2.6512    1.2823   -0.2959 H   0  0  0  0  0  0  0  0  0  0  0  0
    3.7096   -0.7781   -1.2901 H   0  0  0  0  0  0  0  0  0  0  0  0
    3.6250   -1.5666    0.2600 H   0  0  0  0  0  0  0  0  0  0  0  0
    5.9121   -0.6074   -0.1057 H   0  0  0  0  0  0  0  0  0  0  0  0
    5.1338    0.2021    1.2492 H   0  0  0  0  0  0  0  0  0  0  0  0
    5.2188    0.9963   -0.3145 H   0  0  0  0  0  0  0  0  0  0  0  0
  1  2  1  0  0  0  0
  2  3  1  0  0  0  0
  3  4  1  0  0  0  0
  4  5  1  0  0  0  0
  5  6  1  0  0  0  0
  6  7  1  0  0  0  0
  7  8  1  0  0  0  0
  8  9  1  0  0  0  0
  1 10  1  0  0  0  0
  1 11  1  0  0  0  0
  1 12  1  0  0  0  0
  2 13  1  0  0  0  0
  2 14  1  0  0  0  0
  3 15  1  0  0  0  0
  3 16  1  0  0  0  0
  4 17  1  0  0  0  0
  4 18  1  0  0  0  0
  5 19  1  0  0  0  0
  5 20  1  0  0  0  0
  6 21  1  0  0  0  0
  6 22  1  0  0  0  0
  7 23  1  0  0  0  0
  7 24  1  0  0  0  0
  8 25  1  0  0  0  0
  8 26  1  0  0  0  0
  9 27  1  0  0  0  0
  9 28  1  0  0  0  0
  9 29  1  0  0  0  0
M  CHG  1   1   1
M  END
