34
2.115
N           -2.35899  -1.05712  -0.43175
C           -3.34249  -0.11905   0.18218
C           -3.23248   1.28510  -0.40841
C           -1.83578   1.81712  -0.28287
C           -0.95430   1.74171  -1.35376
C            0.37916   2.04658  -1.18854
C           -1.35582   2.24146   0.94965
C           -0.02260   2.54702   1.11913
C            0.86716   2.42706   0.05697
N            2.24389   2.53128   0.26947
N            3.00336   1.55677   0.14886
C            2.54446   0.26415  -0.12912
C            1.64969  -0.37381   0.72592
C            1.14183  -1.61584   0.40984
C            1.52294  -2.24125  -0.76159
C            2.41667  -1.62311  -1.61494
C            2.92473  -0.37999  -1.30236
Cl          -1.66028  -3.91551   1.36808
H           -2.55650  -1.20549  -1.43406
H           -2.34781  -1.98286   0.03600
H           -1.40099  -0.68374  -0.36157
H           -3.16438  -0.07402   1.26269
H           -4.35957  -0.51427   0.06408
H           -3.93217   1.97246   0.08088
H           -3.51983   1.26749  -1.46507
H           -1.31416   1.39946  -2.31035
H            1.07256   1.94505  -2.00633
H           -2.03152   2.29017   1.78768
H            0.35896   2.83334   2.08508
H            1.35423   0.12672   1.63251
H            0.44029  -2.09912   1.07192
H            1.12341  -3.21215  -1.00888
H            2.71507  -2.11190  -2.52900
H            3.61184   0.11753  -1.96591
