26
 xtb: 6.5.1 (fef0646)
N           -1.42709947391037        1.29715226713114        1.13294023995499
C           -0.85564108252536        2.15530527580923        0.05092105712401
C           -0.21626111115791        1.31800069871835       -1.05685983644054
C            0.89600701497042        0.44280282289549       -0.55832516489540
C            2.06838800739511        0.98253529995895       -0.23332403936243
C            3.23423259878656        0.21371620435420        0.30830579817684
C            3.09309042719065       -1.30488821217457        0.11186095035022
C            1.66955664301838       -1.77048892227871        0.44123546064717
C            0.63125857290144       -1.03511709923167       -0.42318165980993
Cl          -3.32349445859548       -0.91859654891990       -0.02270955143843
H           -0.58506059558829        0.85536158478799        1.64190817524416
H           -2.03124493232246        0.66460697191876        0.83247021175580
H           -1.81959613400592        1.94807454757617        1.89277427245500
H           -0.07147708213315        2.89177698421365        0.42489916395604
H           -1.63030995804659        2.81333275171263       -0.36244038447765
H            0.15344891016749        1.94162184659369       -1.87757511952319
H           -1.00009266341542        0.68909965208962       -1.48982669399650
H            2.18855086286175        2.04833815930445       -0.36183176587559
H            3.33866262396883        0.43134900001061        1.37977918133593
H            4.16324137890348        0.57356696638409       -0.15596960295380
H            3.82944674813665       -1.84820077075317        0.71866709568638
H            3.32483475981931       -1.56021618504887       -0.93029283026885
H            1.46175149765907       -1.57761428565283        1.50224980390158
H            1.57729647984228       -2.85771638387179        0.31712737845344
H           -0.37780077980183       -1.17991938495152       -0.01320024988519
H            0.60582533022919       -1.47410608507040       -1.42615530107091
