18
 xtb: 6.5.1 (fef0646)
N           -1.10590791608486        0.35024619269972        1.37206730792031
C           -0.92527217092801        1.79216251420218        1.03595336717285
C           -0.82147506273549        2.03743052500205       -0.46903421387562
C            0.51850612055859        1.63686125601730       -1.10670567583246
C            0.75521022273805        0.12966247354536       -1.23327891376637
Br           1.88109642066706       -0.61704685663478        0.13343905068880
Cl          -3.46148069318682       -0.96234394443240       -0.19744359833111
H           -1.12914577358863        0.26873252035854        2.44901189258596
H           -0.17126648605512       -0.10737442139191        1.13346519688214
H           -1.83049299661973       -0.04859474862048        0.95695455813591
H           -0.02095397365695        2.27207118139731        1.53428452594276
H           -1.76236893106578        2.37532408356466        1.45566511311426
H           -1.01604195702770        3.09794405166267       -0.68514199614567
H           -1.62924157579265        1.48934977591380       -0.94723483872159
H            1.34951840302793        2.08282719742555       -0.53671981494307
H            0.58748421841353        2.09864747094867       -2.10202821200070
H            1.26877541196017       -0.11324209178422       -2.16877665668326
H           -0.18519490568208       -0.41831244416044       -1.24220017602184
