23
0.136
N           -2.38797   1.72548  -0.66225
C           -1.32590   2.05054   0.32671
C           -0.12009   1.17443   0.18533
C           -0.24024  -0.20599   0.24395
C            0.86791  -1.01851   0.11743
C            2.13739  -0.47529  -0.06920
C            3.29923  -1.35974  -0.20313
C            4.55823  -0.98906  -0.00968
C            2.25209   0.91219  -0.13428
C            1.14116   1.72187  -0.00778
Cl          -3.50193  -1.50351   0.14628
H           -2.01695   1.76643  -1.62424
H           -3.19181   2.37566  -0.60366
H           -2.74979   0.76705  -0.51151
H           -1.72204   1.95810   1.34474
H           -1.03138   3.10080   0.21747
H           -1.21582  -0.64351   0.37917
H            0.75888  -2.08976   0.16522
H            3.09195  -2.38502  -0.46690
H            4.81073   0.01229   0.28042
H            5.37391  -1.67941  -0.11816
H            3.21913   1.35692  -0.29928
H            1.24710   2.79325  -0.06041
