23
 xtb: 6.5.1 (fef0646)
N           -2.43066284309207        1.64630782013775        0.64179830746698
C           -1.37650483400032        2.00839913343750       -0.35289783023801
C           -0.14582210993096        1.16435949378698       -0.21741833397263
C            1.10303627871340        1.74102315737751       -0.03591731911367
C            2.23017757575463        0.95680029277786        0.09813003688376
C            2.14319248067824       -0.43308441362843        0.05609155322275
C            3.32579866056384       -1.28474151348459        0.21714779551496
C            4.56503283739726       -0.90172312929773       -0.08601447747776
C            0.88601864505241       -1.00594907032939       -0.12354774262708
C           -0.23603126712122       -0.21778838543653       -0.26224374054759
Cl          -3.44849561110927       -1.51890239156944       -0.03886466993373
H           -3.22557246336700        2.32797635181126        0.60201254513823
H           -2.02368789374151        1.77374640753591        1.61805140863992
H           -2.75505244705690        0.73096363742227        0.54545692392690
H           -1.09615262275697        3.07624359401419       -0.28161865871420
H           -1.78661047534949        1.89141065216675       -1.36232628703921
H            1.19027885246794        2.81545337002782       -0.00843506091830
H            3.19009459834616        1.42153553918498        0.23078258084589
H            3.13553220238290       -2.31633609429463        0.46573584936314
H            4.80036236082566        0.09904350750061       -0.34651714087327
H            5.40015349262955       -1.57109356487692        0.08544834278419
H            0.79153910960063       -2.07603809154942       -0.15777270315320
H           -1.20980562739419       -0.67014412750277       -0.37149075724328
