25
0.642
N           -1.46889   0.34599   0.71388
C           -0.53470  -0.15607  -0.33558
C            0.86706   0.46236  -0.24267
C            1.72717   0.10435  -1.47863
C            3.12321   0.74611  -1.40204
C            3.84890   0.33518  -0.10911
C            3.00641   0.68472   1.13003
C            1.60849   0.04580   1.04916
Cl          -4.66916  -1.03124   0.20170
H           -1.54338   1.37189   0.67991
H           -1.14758   0.08975   1.65726
H           -2.42130  -0.04269   0.59479
H           -0.95740   0.04943  -1.32600
H           -0.45226  -1.24649  -0.27355
H            0.75382   1.55769  -0.22101
H            1.20811   0.39627  -2.40060
H            1.82588  -0.98562  -1.53336
H            3.02259   1.83815  -1.43074
H            3.72142   0.48483  -2.28587
H            4.84079   0.80452  -0.05203
H            4.03824  -0.74532  -0.12657
H            2.90316   1.77440   1.20286
H            3.52165   0.37870   2.05096
H            1.01290   0.30138   1.93383
H            1.70065  -1.04591   1.06512
