25
0.0
N           -1.57583  -1.88096  -0.46293
C           -0.35756  -1.85386   0.39820
C            0.46648  -0.57021   0.22751
C            1.07490  -0.44587  -1.18869
C            1.88180   0.85544  -1.34416
C            2.98379   0.95599  -0.27505
C            2.39138   0.83438   1.13976
C            1.58657  -0.46810   1.29044
Cl          -3.19816   1.16105   0.12892
H           -2.17184  -2.69736  -0.26628
H           -1.32967  -1.90741  -1.46156
H           -2.14149  -1.02921  -0.30855
H            0.27491  -2.72213   0.18415
H           -0.65241  -1.95722   1.44890
H           -0.20935   0.28742   0.37276
H            0.28937  -0.50958  -1.95144
H            1.72681  -1.30799  -1.36843
H            1.20577   1.71435  -1.25020
H            2.30948   0.93021  -2.35352
H            3.54832   1.89250  -0.38289
H            3.71626   0.15445  -0.43210
H            1.73427   1.69121   1.33321
H            3.18147   0.89475   1.90088
H            1.16291  -0.55652   2.29902
H            2.25534  -1.32899   1.17924
