34
 xtb: 6.5.1 (fef0646)
N           -2.36294607585343       -1.02602787066673       -0.47437290219475
C           -3.35050131414952       -0.10121404413123        0.15254329862900
C           -3.23094643953299        1.30645906935434       -0.42347194920878
C           -1.83004867693262        1.82574764039689       -0.29047326710398
C           -0.95091673056535        1.76829256414079       -1.36426411129816
C            0.38263487686604        2.07091126637511       -1.19639896083957
C           -1.34684974749469        2.22259727828815        0.95014401127819
C           -0.01334031502892        2.52435158788008        1.12247946527310
C            0.87345678866461        2.42952414994014        0.05482439629432
N            2.25060901232868        2.53786672662065        0.26138729035801
N            3.01073821955110        1.56275897992388        0.13968691162980
C            2.54515663338858        0.26981991811523       -0.12963455428099
C            1.68206503855992       -0.37087672596457        0.75599535958131
C            1.16325082093384       -1.61205821141488        0.45397868216486
C            1.50367446418254       -2.23500649384842       -0.73189600363111
C            2.36562975744538       -1.61342659746884       -1.61608953451800
C            2.88155507286833       -0.36936147290209       -1.31978433226719
Cl          -1.64618551378359       -4.01111913161991        1.40356319230433
H           -2.54581629414248       -1.17808338764771       -1.45087484406457
H           -2.36684590524393       -1.97938302990426        0.00776482691791
H           -1.39926338704388       -0.68621596366551       -0.35319104700841
H           -3.16872340023181       -0.07324661132572        1.25460699732815
H           -4.36170952552636       -0.50844806315969        0.05165444494640
H           -3.93057749349497        1.97907290021438        0.07751247259674
H           -3.51875768629142        1.27684787675459       -1.46968243292832
H           -1.31386079164606        1.41254310999508       -2.31506832590139
H            1.07304383385013        1.95686180263201       -2.00961405781323
H           -2.02835189459132        2.27979141366348        1.78856524827139
H            0.36220937046128        2.82134710419068        2.08742165086939
H            1.37308626311112        0.12711900456224        1.64453518477915
H            0.45287986414127       -2.09822965325795        1.09120280311699
H            1.11583702285645       -3.21053669925047       -0.99628222061686
H            2.69096272365902       -2.10838345263102       -2.53277408903653
H            3.59183519512683        0.12146622435752       -1.97807044016533
