 xtb: 6.5.1 (fef0646)
          01242310043D

 34 34  0     0  0            999 V2000
   -2.3590   -1.0571   -0.4317 N   0  0  0  0  0  0  0  0  0  0  0  0
   -3.3425   -0.1190    0.1822 C   0  0  0  0  0  0  0  0  0  0  0  0
   -3.2325    1.2851   -0.4084 C   0  0  0  0  0  0  0  0  0  0  0  0
   -1.8358    1.8171   -0.2829 C   0  0  0  0  0  0  0  0  0  0  0  0
   -0.9543    1.7417   -1.3538 C   0  0  0  0  0  0  0  0  0  0  0  0
    0.3792    2.0466   -1.1885 C   0  0  0  0  0  0  0  0  0  0  0  0
   -1.3558    2.2415    0.9497 C   0  0  0  0  0  0  0  0  0  0  0  0
   -0.0226    2.5470    1.1191 C   0  0  0  0  0  0  0  0  0  0  0  0
    0.8672    2.4271    0.0570 C   0  0  0  0  0  0  0  0  0  0  0  0
    2.2439    2.5313    0.2695 N   0  0  0  0  0  0  0  0  0  0  0  0
    3.0034    1.5568    0.1488 N   0  0  0  0  0  0  0  0  0  0  0  0
    2.5445    0.2641   -0.1291 C   0  0  0  0  0  0  0  0  0  0  0  0
    1.6497   -0.3738    0.7259 C   0  0  0  0  0  0  0  0  0  0  0  0
    1.1418   -1.6158    0.4098 C   0  0  0  0  0  0  0  0  0  0  0  0
    1.5229   -2.2413   -0.7616 C   0  0  0  0  0  0  0  0  0  0  0  0
    2.4167   -1.6231   -1.6149 C   0  0  0  0  0  0  0  0  0  0  0  0
    2.9247   -0.3800   -1.3024 C   0  0  0  0  0  0  0  0  0  0  0  0
   -1.6603   -3.9155    1.3681 Cl  0  0  0  0  0  0  0  0  0  0  0  0
   -2.5565   -1.2055   -1.4340 H   0  0  0  0  0  0  0  0  0  0  0  0
   -2.3478   -1.9828    0.0360 H   0  0  0  0  0  0  0  0  0  0  0  0
   -1.4010   -0.6837   -0.3616 H   0  0  0  0  0  0  0  0  0  0  0  0
   -3.1644   -0.0740    1.2627 H   0  0  0  0  0  0  0  0  0  0  0  0
   -4.3596   -0.5142    0.0641 H   0  0  0  0  0  0  0  0  0  0  0  0
   -3.9322    1.9725    0.0809 H   0  0  0  0  0  0  0  0  0  0  0  0
   -3.5198    1.2675   -1.4651 H   0  0  0  0  0  0  0  0  0  0  0  0
   -1.3142    1.3995   -2.3103 H   0  0  0  0  0  0  0  0  0  0  0  0
    1.0726    1.9450   -2.0063 H   0  0  0  0  0  0  0  0  0  0  0  0
   -2.0315    2.2902    1.7877 H   0  0  0  0  0  0  0  0  0  0  0  0
    0.3590    2.8333    2.0851 H   0  0  0  0  0  0  0  0  0  0  0  0
    1.3542    0.1267    1.6325 H   0  0  0  0  0  0  0  0  0  0  0  0
    0.4403   -2.0991    1.0719 H   0  0  0  0  0  0  0  0  0  0  0  0
    1.1234   -3.2122   -1.0089 H   0  0  0  0  0  0  0  0  0  0  0  0
    2.7151   -2.1119   -2.5290 H   0  0  0  0  0  0  0  0  0  0  0  0
    3.6118    0.1175   -1.9659 H   0  0  0  0  0  0  0  0  0  0  0  0
  1  2  1  0  0  0  0
  2  3  1  0  0  0  0
  3  4  1  0  0  0  0
  4  5  4  0  0  0  0
  5  6  4  0  0  0  0
  4  7  4  0  0  0  0
  7  8  4  0  0  0  0
  6  9  4  0  0  0  0
  8  9  4  0  0  0  0
  9 10  1  0  0  0  0
 10 11  2  0  0  0  0
 11 12  1  0  0  0  0
 12 13  4  0  0  0  0
 13 14  4  0  0  0  0
 14 15  4  0  0  0  0
 15 16  4  0  0  0  0
 12 17  4  0  0  0  0
 16 17  4  0  0  0  0
  1 19  1  0  0  0  0
  1 20  1  0  0  0  0
  1 21  1  0  0  0  0
  2 22  1  0  0  0  0
  2 23  1  0  0  0  0
  3 24  1  0  0  0  0
  3 25  1  0  0  0  0
  5 26  1  0  0  0  0
  6 27  1  0  0  0  0
  7 28  1  0  0  0  0
  8 29  1  0  0  0  0
 13 30  1  0  0  0  0
 14 31  1  0  0  0  0
 15 32  1  0  0  0  0
 16 33  1  0  0  0  0
 17 34  1  0  0  0  0
M  END
