37
2.367
N           -2.94379   1.65856   0.93071
C           -3.65715   0.37831   1.14038
C           -3.65089  -0.41176  -0.16068
O           -2.37693  -0.34441  -0.79386
C           -1.32399  -0.91676  -0.09440
C           -0.01692  -0.44435  -0.38659
C            0.19538   0.56887  -1.35580
C            1.44112   1.03734  -1.62789
C            1.09405  -0.97156   0.31017
C            0.91283  -1.97754   1.28836
C           -0.38656  -2.43420   1.54744
C           -1.46736  -1.92015   0.87728
C            2.05153  -2.48919   1.96972
C            3.29982  -2.02841   1.69972
C            3.51682  -1.01311   0.72338
C            4.78963  -0.51881   0.42713
C            4.96062   0.46692  -0.52472
C            3.87769   0.98682  -1.20527
C            2.58331   0.52681  -0.94684
C            2.40177  -0.48471   0.02757
Cl          -4.61443   3.50031  -1.47707
H           -3.44240   2.24602   0.24166
H           -2.01381   1.45582   0.52845
H           -2.81924   2.20607   1.80368
H           -4.67866   0.55159   1.50000
H           -3.14989  -0.18903   1.92922
H           -4.35993   0.02678  -0.87204
H           -3.94607  -1.45869  -0.03427
H           -0.66148   0.95470  -1.88320
H            1.58199   1.80529  -2.37022
H           -0.52697  -3.20511   2.28720
H           -2.44721  -2.30846   1.08957
H            1.90638  -3.25705   2.71153
H            4.15090  -2.42821   2.22562
H            5.64133  -0.91791   0.95280
H            5.95168   0.83478  -0.73911
H            4.02161   1.75568  -1.94624
