  22

 N         -1.6783326639       -1.3574947840       -0.5462075515
 C         -0.5753811303       -1.5701123848        0.3983125126
 C         -0.0504775678       -3.0019710618        0.3445819731
 C          0.5296452454       -0.5609759651        0.1853082469
 C          0.9029569369        0.3016461470        1.2058243598
 C          1.9069210839        1.2289197762        1.0120995588
 C          2.5512489489        1.3053164315       -0.2055643462
 C          2.1890065957        0.4530461066       -1.2284240794
 C          1.1845181006       -0.4736408209       -1.0330842433
 Cl        -2.2375501939        1.8611169130        0.1211698454
 H         -2.4010267382       -2.0507486417       -0.3874356692
 H         -1.3383295831       -1.5249665475       -1.4853790490
 H         -2.0070853636        0.5718799051       -0.1495443238
 H         -0.9890878789       -1.3880799537        1.4038631049
 H          0.3501006123       -3.2271493272       -0.6432575013
 H         -0.8403510428       -3.7245828643        0.5517309992
 H          0.7503252236       -3.1579234303        1.0679881696
 H          0.3983578814        0.2453683831        2.1557052108
 H          2.1866927758        1.8947130352        1.8126085357
 H          3.3354578517        2.0294652758       -0.3574991046
 H          2.6902688877        0.5111485182       -2.1811961823
 H          0.9032244123       -1.1377975766       -1.8326885019
          22
        -30.69967503
 N         -1.1200140925       -0.4958948418       -0.8742673534
 C         -0.4322223383        0.0949308220        0.2798862617
 C         -0.8412301229       -0.5883951293        1.5819169514
 C          1.0678568876        0.0944815540        0.0958702134
 C          1.7551902698       -1.0905740928       -0.1131903479
 C          3.1252730033       -1.0904746666       -0.2830302511
 C          3.8258728490        0.0975093874       -0.2448055100
 C          3.1537291321        1.2841498405       -0.0354333117
 C          1.7838818605        1.2822436868        0.1342677549
 Cl        -4.2939211946        0.2331368630       -0.1990029647
 H         -0.8889397743       -1.4809296549       -0.9211082333
 H         -0.7489191469       -0.0852911990       -1.7236562178
 H         -3.0204106283       -0.0621728238       -0.4810983664
 H         -0.7605897501        1.1461926535        0.3295019168
 H         -0.3733817683       -0.1131783838        2.4448933193
 H         -0.5384256708       -1.6350148242        1.5773975526
 H         -1.9218855494       -0.5607468430        1.7221730352
 H          1.2106664124       -2.0190285927       -0.1407419795
 H          3.6475862888       -2.0194955104       -0.4453235217
 H          4.8956892242        0.0984141993       -0.3780348515
 H          3.6989964384        2.2136631505       -0.0030514556
 H          1.2606211096        2.2088961597        0.3005263447
