16
2.241
N           -0.10322  -1.13025  -0.41978
C            0.72655  -0.00407   0.09929
C            2.21539  -0.20656  -0.16571
C            3.05502   0.92033   0.33739
C            3.22311   2.04099  -0.33653
Cl          -3.51027  -0.51902   0.23704
H            0.16629  -2.02287   0.02297
H            0.01992  -1.24008  -1.43581
H           -1.10944  -0.98041  -0.23925
H            0.55780   0.11736   1.17587
H            0.39696   0.93884  -0.35285
H            2.38281  -0.33146  -1.24173
H            2.54290  -1.15266   0.28260
H            3.49381   0.82240   1.31851
H            2.77271   2.17935  -1.30047
H            3.81071   2.85353   0.04698
