  21

 N          2.7090053283        3.7315459770       -1.1109179172
 C          2.4033161863        2.8003490172        0.0025443437
 C          2.9539145597        1.4086358952       -0.3035277721
 C          4.4603534927        1.3853335068       -0.3284924203
 C          5.1781268078        1.5051383553        0.8578437554
 C          6.5606708244        1.4800554502        0.8570938985
 C          7.2154150419        1.3309201865       -0.3512483920
 F          8.5824305374        1.2938008587       -0.3607036603
 C          6.5372192084        1.2130724722       -1.5477070193
 C          5.1526272954        1.2454817412       -1.5256778220
 H          2.3675341519        4.6760921778       -0.9004299969
 H          2.2662949699        3.4066996785       -1.9789594230
 H          3.7239349238        3.7713248164       -1.2630663818
 H          1.3237128496        2.7447445353        0.1352674612
 H          2.8521623336        3.1824341096        0.9188688971
 H          2.5656128967        1.0524528983       -1.2569689520
 H          2.6055391353        0.7256546008        0.4708159985
 H          4.6578558881        1.6025336035        1.7979079233
 H          7.1313650289        1.5619495433        1.7680791420
 H          7.0882475626        1.0922785230       -2.4663624064
 H          4.6183109774        1.1350120531       -2.4566492564
