  23

 N         -3.2008087829       -1.5185410136       -0.5455339089
 C         -1.9850609416       -1.9813188472        0.1894568126
 C         -0.8473919021       -1.0373443691        0.0518323884
 C          0.4242609809       -1.3914348264        0.2154315345
 C          1.5691473667       -0.4848302151        0.1098913256
 C          2.8619355573       -1.0071833187        0.0830710057
 C          3.9601216549       -0.1786097087       -0.0116501992
 C          3.7902113116        1.1896916494       -0.0798760573
 C          2.5186178282        1.7266418184       -0.0531267180
 C          1.4186673671        0.9001637124        0.0411728515
 Cl        -1.8915296050        2.3269186459       -0.0862355402
 H         -4.0023402664       -2.1482597377       -0.4045100836
 H         -3.0136750684       -1.4592374981       -1.5547439949
 H         -3.4744667324       -0.5755233424       -0.2302450735
 H         -1.6883892926       -2.9717564693       -0.1754303763
 H         -2.2189489336       -2.1135972298        1.2528972713
 H         -1.0885313145       -0.0121201953       -0.1659273184
 H          0.6413376146       -2.4222104466        0.4396981051
 H          2.9966127758       -2.0746026849        0.1349191179
 H          4.9523344122       -0.5999051832       -0.0323393809
 H          4.6488132996        1.8376218893       -0.1543102492
 H          2.3843918678        2.7952642594       -0.1062128319
 H          0.4337819999        1.3335563220        0.0685549095
          23
        -32.85169518
 N         -3.2145997942       -1.5168174378        0.6405584485
 C         -1.9876058060       -2.0222833987       -0.0455486948
 C         -0.8338174147       -1.1023361407        0.1141814554
 C          0.4197568222       -1.4456236729       -0.1699416994
 C          1.5747106179       -0.5537010108       -0.0475463929
 C          2.7506983663       -0.8394450756       -0.7407353176
 C          3.8502139677       -0.0131198122       -0.6409221176
 C          3.7996588555        1.1139580234        0.1551265723
 C          2.6460283324        1.4108844569        0.8536366907
 C          1.5448656231        0.5862652418        0.7556494206
 Cl        -3.4095047121        1.8248033495       -0.3907364203
 H         -4.0354400844       -2.1123620114        0.4644583940
 H         -3.4322872669       -0.5628865083        0.3152818122
 H         -3.0686239472       -1.4656220858        1.6603235612
 H         -2.1898828170       -2.1671578961       -1.1136350609
 H         -1.7262621658       -3.0131748088        0.3450448582
 H         -1.0470401405       -0.0972918829        0.4327220515
 H          0.6080513452       -2.4427770298       -0.5307299430
 H          2.7901905404       -1.7168935013       -1.3643214669
 H          4.7510413133       -0.2474240799       -1.1851165894
 H          4.6594542350        1.7598306148        0.2332256225
 H          2.6073373149        2.2882277773        1.4793479866
 H          0.6565180474        0.8155210295        1.3184601753
          23
        -32.85210398
 N         -3.3637717192       -1.4515755777        0.5507109110
 C         -2.1503478206       -1.9924953550       -0.1334806133
 C         -0.9864181187       -1.0787347809       -0.0098328973
 C          0.2778908935       -1.4809053470       -0.1069560369
 C          1.4463877253       -0.6032107294       -0.0196581784
 C          2.6999432639       -1.0804239940       -0.4021195909
 C          3.8175496496       -0.2759205284       -0.3291385920
 C          3.7077017896        1.0216204348        0.1298084554
 C          2.4760410672        1.5117829436        0.5164462174
 C          1.3565036852        0.7095486678        0.4435856493
 Cl        -2.9260645363        1.9393583365       -0.2909079471
 H         -4.2065337582       -2.0106171454        0.3599983402
 H         -3.5356912488       -0.4847762292        0.2397645805
 H         -3.2229912328       -1.4188531402        1.5717822233
 H         -2.3639321545       -2.1629815951       -1.1956623265
 H         -1.8984136791       -2.9762207051        0.2804216223
 H         -1.2028422321       -0.0321168204        0.1121070774
 H          0.4684185270       -2.5280002978       -0.2733667957
 H          2.7871074612       -2.0920634432       -0.7617092653
 H          4.7786121294       -0.6605909142       -0.6307902655
 H          4.5817564800        1.6502924333        0.1871628431
 H          2.3898473858        2.5241445245        0.8775360109
 H          0.4037117823        1.1001402402        0.7558125806
          23
        -32.85238811
 N         -3.2799302600       -1.4951961671        0.6024324102
 C         -2.0674196984       -2.0103809881       -0.1021460969
 C         -0.9132900305       -1.0843510387        0.0209351224
 C          0.3533051747       -1.4682243167       -0.1141145551
 C          1.5112232299       -0.5767291392       -0.0229406929
 C          2.7439758742       -0.9863468009       -0.5306703673
 C          3.8498466590       -0.1661425402       -0.4537943584
 C          3.7487213572        1.0790194175        0.1342902082
 C          2.5378380028        1.5009076641        0.6468647472
 C          1.4300489896        0.6828320746        0.5707636062
 Cl        -3.1684351586        1.8737684049       -0.3391676137
 H         -4.1118250039       -2.0764319889        0.4307853213
 H         -3.4835492927       -0.5347342938        0.2894226965
 H         -3.1205195722       -1.4537593852        1.6205050300
 H         -2.2910390457       -2.1703757013       -1.1638501078
 H         -1.7978381115       -2.9957416203        0.2964260251
 H         -1.1380375274       -0.0440945039        0.1778408004
 H          0.5535915869       -2.5067332197       -0.3175816069
 H          2.8237623034       -1.9569753915       -0.9909409617
 H          4.7948968179       -0.4977122644       -0.8531545903
 H          4.6139109417        1.7195278317        0.1952001166
 H          2.4591179877        2.4717021406        1.1095332830
 H          0.4945319960        1.0150322132        0.9862752942
