  20

 N         -3.8673229616       -0.4060640223        0.0942796120
 C         -2.4125771006       -0.3033123055        0.4340114527
 C         -1.6501112943        0.6456398450       -0.4896002501
 C         -0.1758810249        0.8480235670       -0.1074614699
 C          0.7034889740       -0.3949854792       -0.2715456040
 C          2.1447814898       -0.1068279558        0.0714181236
 O          3.0406458663       -1.1153703847       -0.0058670958
 O          2.4383891111        1.0188071434        0.4019970417
 H         -4.3502863443       -1.0446454688        0.7329811638
 H         -3.9924520616       -0.7557278161       -0.8599907137
 H         -4.3194759419        0.5103388555        0.1605401373
 H         -1.9690458160       -1.3048092858        0.3974019091
 H         -2.3133501482        0.0316230258        1.4737544511
 H         -2.1630743245        1.6149729643       -0.4967356901
 H         -1.7128032344        0.2799490154       -1.5204256215
 H         -0.1021108877        1.2012340618        0.9284048251
 H          0.2619196520        1.6565274164       -0.7085244666
 H          0.6402376757       -0.7568388694       -1.3023109546
 H          0.3371621646       -1.2014723867        0.3693157550
 H          2.6793753175       -1.9689294398       -0.2841800376
          20
        -27.57971601
 N          1.8338227007        1.4254958717       -0.1389890914
 C          2.2037378988        0.1989940449        0.6290992067
 C          1.8727623616       -1.1104395881       -0.0964763278
 C          0.4496597192       -1.2014534149       -0.6700011734
 C         -0.6911677651       -1.0369085832        0.3654747928
 C         -1.5703979402        0.1428810365        0.0516944459
 O         -2.8947359021       -0.0292854770        0.2005518405
 O         -1.0697965525        1.1804622252       -0.3068540268
 H          2.2670684034        1.4281602289       -1.0681472840
 H          2.1149271000        2.2798001965        0.3539647094
 H          0.8020899298        1.4460534390       -0.2503688511
 H          1.6919804195        0.2319917515        1.5986285276
 H          3.2751834859        0.2369603313        0.8660557773
 H          2.0389965711       -1.9564818514        0.5822054761
 H          2.5942021776       -1.2521139059       -0.9109187355
 H          0.3314247846       -2.1541684103       -1.2043823454
 H          0.3242269205       -0.4377125186       -1.4477027727
 H         -0.2857958585       -0.9184403038        1.3747688160
 H         -1.3247070132       -1.9309823263        0.4071789039
 H         -3.3679496315        0.7762775083       -0.0165509246
          20
        -27.58066102
 N          1.7801132930        1.4660746541        0.1127708156
 C          2.0474292048        0.2724697793       -0.7434964293
 C          1.8632648300       -1.0625084170       -0.0149974685
 C          0.5144302600       -1.2537636047        0.6993836350
 C         -0.7368620722       -1.1516741579       -0.2070942211
 C         -1.5273569931        0.1105977854        0.0192741986
 O         -2.7826887265        0.1159980313       -0.4592122057
 O         -1.0327065213        1.0524498958        0.5887298455
 H          0.7775632959        1.4484038690        0.3733398831
 H          1.9627269467        2.3421842968       -0.3877148049
 H          2.3476907718        1.4518096344        0.9664086077
 H          3.0667510581        0.3448636725       -1.1443567810
 H          1.3855250339        0.3159602731       -1.6168827850
 H          2.6726726789       -1.1750599674        0.7170380136
 H          2.0067950766       -1.8859222818       -0.7261860188
 H          0.4161426355       -0.5194880304        1.5085921058
 H          0.5189978865       -2.2263201361        1.2110751805
 H         -1.4140562869       -1.9976751714       -0.0379235385
 H         -0.4557643374       -1.2151347703       -1.2627083540
 H         -3.2087582692        0.9565844065       -0.2811774444
