23
 xtb: 6.5.1 (fef0646)
N           -2.52478897228286        1.54592060373328       -0.58626718676612
C           -1.48894335495137        2.00102625750649        0.39163502415998
C           -0.18411667083823        1.28315495883567        0.22515144366425
C            1.00207399420574        1.98354435921056        0.06015538577408
C            2.20040496738308        1.31653555142009       -0.08304518444660
C            2.25552371621870       -0.07672044153473       -0.06899785422683
C            3.54620222472026       -0.75149281638953       -0.21958487395438
C            3.76364055410958       -2.04849242844896        0.00035371967533
C            1.05804688251831       -0.77306157374137        0.08716917783989
C           -0.13659243034831       -0.10195156332466        0.23526842061135
Cl          -3.20556556581023       -1.72661786719093        0.04113664187062
H           -3.37801272420293        2.14868134209872       -0.50226486141184
H           -2.75555940969492        0.60125960490636       -0.48539710447405
H           -2.15252453823349        1.72982278754462       -1.55071544701112
H           -1.85963778300553        1.81895920765278        1.42364446427670
H           -1.31408296654431        3.08529306107887        0.35249858021275
H            0.98534651088297        3.05910539439418        0.06779757410919
H            3.11495819052319        1.87010154885476       -0.21082959962519
H            4.34472684416003       -0.16600877038767       -0.64797317178908
H            3.00284939382463       -2.65965665451986        0.46925900838804
H            4.73241931403991       -2.47843005001635       -0.08644250696894
H            1.05851688172458       -1.85065414850661        0.05178845784491
H           -1.05765932193826       -0.65539504510666        0.33596728954449
