14
1.668
N           -0.09119  -0.26511   0.58918
C            0.80731   0.85242   0.19251
C            2.24882   0.61228   0.64203
C            2.85355  -0.54590   0.06543
C            3.34456  -1.54055  -0.43095
Cl          -3.36022   0.29535  -0.47880
H            0.23228  -1.15763   0.18296
H           -1.07024  -0.11195   0.27674
H           -0.10312  -0.38417   1.61458
H            0.42622   1.79449   0.60739
H            0.77869   0.97388  -0.89715
H            2.27419   0.51459   1.73477
H            2.86900   1.48892   0.41196
H            3.77496  -2.41368  -0.86654
