14
 xtb: 6.5.1 (fef0646)
N           -0.06988478468245       -1.94732081993847       -0.05171706029100
C            1.08117413983373       -1.08804196481396       -0.46093655800929
C            1.30241149120748        0.09814430131403        0.47707794726756
C            2.43916869190043        0.88796116563787        0.15194690513680
C            3.40514975749463        1.55562762101987       -0.14602204569661
Cl          -3.04236935975041        0.49297086144917        0.02231829698370
H           -0.33886153039587       -2.64956040133925       -0.70399706542850
H           -0.99373994638536       -1.27366613606762       -0.03460513981732
H           -0.03742792013957       -2.26513365959355        0.88854507865913
H            0.91307413323060       -0.70192762426459       -1.47893137781281
H            1.92460179879044       -1.71740678171795       -0.48555825801860
H            1.40409270578919       -0.26704670432289        1.51117415945270
H            0.40739021496488        0.75022514108492        0.50995247256859
H            4.25598399037042        2.13130284967440       -0.41057250684526
