 xtb: 6.5.1 (fef0646)
          01242310043D

 14 12  0     0  0            999 V2000
   -0.0912   -0.2651    0.5892 N   0  0  0  0  0  0  0  0  0  0  0  0
    0.8073    0.8524    0.1925 C   0  0  0  0  0  0  0  0  0  0  0  0
    2.2488    0.6123    0.6420 C   0  0  0  0  0  0  0  0  0  0  0  0
    2.8535   -0.5459    0.0654 C   0  0  0  0  0  0  0  0  0  0  0  0
    3.3446   -1.5406   -0.4310 C   0  0  0  0  0  0  0  0  0  0  0  0
   -3.3602    0.2954   -0.4788 Cl  0  0  0  0  0  0  0  0  0  0  0  0
    0.2323   -1.1576    0.1830 H   0  0  0  0  0  0  0  0  0  0  0  0
   -1.0702   -0.1119    0.2767 H   0  0  0  0  0  0  0  0  0  0  0  0
   -0.1031   -0.3842    1.6146 H   0  0  0  0  0  0  0  0  0  0  0  0
    0.4262    1.7945    0.6074 H   0  0  0  0  0  0  0  0  0  0  0  0
    0.7787    0.9739   -0.8972 H   0  0  0  0  0  0  0  0  0  0  0  0
    2.2742    0.5146    1.7348 H   0  0  0  0  0  0  0  0  0  0  0  0
    2.8690    1.4889    0.4119 H   0  0  0  0  0  0  0  0  0  0  0  0
    3.7749   -2.4137   -0.8665 H   0  0  0  0  0  0  0  0  0  0  0  0
  1  2  1  0  0  0  0
  2  3  1  0  0  0  0
  3  4  1  0  0  0  0
  4  5  3  0  0  0  0
  1  7  1  0  0  0  0
  1  8  1  0  0  0  0
  1  9  1  0  0  0  0
  2 10  1  0  0  0  0
  2 11  1  0  0  0  0
  3 12  1  0  0  0  0
  3 13  1  0  0  0  0
  5 14  1  0  0  0  0
M  END
