36
 xtb: 6.5.1 (fef0646)
N           -4.80781393143270        0.46947265276806       -1.64125333910374
C           -5.14746044542508        1.53372591431907       -0.65281135986576
C           -4.50606607373785        1.26943031947847        0.70739421872542
C           -3.01752262606172        1.10256639068559        0.62505463697855
C           -2.45503319020025       -0.15778771985554        0.48069397578230
C           -1.09036807477300       -0.31702817853115        0.36966059801635
C           -0.23690884541018        0.78658167754253        0.39604005500835
C            1.21221547883690        0.66476222027357        0.28228986990637
C            1.89316658618568       -0.49083457526725        0.21946646838164
C            3.34259074990977       -0.60056236135816        0.09859998875833
C            4.14553478079422        0.48923075779477       -0.23697733959401
C            5.51594114465632        0.36260477761045       -0.35606430715230
F            6.27407607875745        1.43809857231058       -0.68739731767101
C            6.10557047412583       -0.86934307440501       -0.13229408398674
C            5.33085353970366       -1.96265747963608        0.19744856762927
C            3.96242759463764       -1.83316810608769        0.30853456418207
C           -0.81097623605690        2.05174051896326        0.52734099686557
C           -2.17685813549733        2.20610326983233        0.63560837776407
Cl          -5.02983481378921       -2.54279802041992       -0.10957156429537
H           -5.33266631567727        0.62199547834389       -2.53296680536369
H           -4.99735641594056       -0.44157729888081       -1.27689354550954
H           -3.80013206999692        0.53839933515393       -1.88208348814712
H           -6.23715057119338        1.61826026189546       -0.53857119180215
H           -4.81932118556926        2.52869197866366       -1.00745173271031
H           -4.93834180561759        0.34472833495483        1.13554556739123
H           -4.74313444853285        2.05319013843625        1.43123772760275
H           -3.10248272120648       -1.02006328587525        0.40269436539632
H           -0.68047111307784       -1.30051985421549        0.19549628608178
H            1.75541144176435        1.59524814477863        0.17677584923051
H            1.35708975011828       -1.40535160383568        0.36409805038453
H            3.71474620474282        1.45369105993739       -0.42857180142689
H            7.17253584008036       -0.96236043023226       -0.23451621050461
H            5.79401364168228       -2.92037583230561        0.37948904314871
H            3.35789383142074       -2.67883432083171        0.59645527167884
H           -0.17334578044009        2.91804630788176        0.56124697546821
H           -2.60793409726902        3.18281180079537        0.76689999633312
