28
0.725
N           -3.08473   0.89139  -0.91954
C           -2.08090   1.98558  -0.78736
C           -0.63949   1.48688  -0.60673
C           -0.13324   0.67203  -1.81732
C            1.34050   0.27216  -1.63818
C            1.55568  -0.52280  -0.33275
C            3.01820  -0.87094  -0.15080
O            3.85858   0.17025   0.05123
O            3.37574  -2.02910  -0.19733
C            1.01975   0.26331   0.88072
C           -0.45204   0.66201   0.68572
Cl          -3.12791  -1.17753   1.96175
H           -4.03757   1.26251  -1.03557
H           -3.09054   0.28469  -0.08248
H           -2.88450   0.29479  -1.73305
H           -2.35458   2.62141   0.06186
H           -2.13488   2.63033  -1.67172
H            0.01856   2.36709  -0.51935
H           -0.28381   1.23420  -2.74658
H           -0.74104  -0.23260  -1.91662
H            1.96942   1.16817  -1.60620
H            1.70220  -0.30808  -2.49566
H            0.99972  -1.46834  -0.40661
H            4.75895  -0.17341   0.15010
H            1.63532   1.15931   1.01288
H            1.15495  -0.32158   1.79849
H           -0.83482   1.21463   1.55187
H           -1.06197  -0.24403   0.61894
