28
 xtb: 6.5.1 (fef0646)
N           -3.09093364453375        0.80753294281878       -0.79436312834419
C           -2.10581564450941        1.93416384708113       -0.75071703540449
C           -0.64850902998506        1.47352569061400       -0.59158805443897
C           -0.13902270109901        0.66729807356049       -1.80690603951424
C            1.33802917823789        0.27534077185871       -1.63593252899139
C            1.56361042234414       -0.52174523258760       -0.33380438161691
C            3.02544196846118       -0.87060583842719       -0.15583425678377
O            3.86735219391184        0.17111271622353        0.04073136323371
O            3.38348494589960       -2.02948872988866       -0.19628302635679
C            1.03795360182902        0.26515285709732        0.88340598918113
C           -0.43666894364896        0.65398247740156        0.69973659675270
Cl          -3.13666075107259       -1.06538853110042        1.82172074327208
H           -4.04065903210788        1.23447084912042       -1.00640132839720
H           -3.09112997380660        0.27132351192312       -0.03613581058972
H           -2.88614524098779        0.25997781238377       -1.69008862390213
H           -2.35793624531054        2.61509214102661        0.06743812010677
H           -2.15334601522498        2.60485644727469       -1.66815017683737
H            0.01082979024613        2.36725801844108       -0.51755362544247
H           -0.28766329446294        1.23394852221139       -2.74244066906565
H           -0.74151150434940       -0.23466580247105       -1.91467420176695
H            1.96732916686093        1.17004807040605       -1.60557063448570
H            1.70117461887788       -0.30576384517906       -2.49611836749935
H            1.00158945692780       -1.46789948235815       -0.40595919156260
H            4.76113736493327       -0.17319496622247        0.14766009687608
H            1.63991908762130        1.16067956081914        1.01099802893898
H            1.16390701436996       -0.32009275070941        1.79940170596770
H           -0.83005674178140        1.21176813481407        1.55643412678511
H           -1.05542845105216       -0.24764732940354        0.62380992859539
