 xtb: 6.5.1 (fef0646)
          01242316573D

 28 27  0     0  0            999 V2000
   -3.0847    0.8914   -0.9195 N   0  0  0  0  0  0  0  0  0  0  0  0
   -2.0809    1.9856   -0.7874 C   0  0  0  0  0  0  0  0  0  0  0  0
   -0.6395    1.4869   -0.6067 C   0  0  0  0  0  0  0  0  0  0  0  0
   -0.1332    0.6720   -1.8173 C   0  0  0  0  0  0  0  0  0  0  0  0
    1.3405    0.2722   -1.6382 C   0  0  0  0  0  0  0  0  0  0  0  0
    1.5557   -0.5228   -0.3328 C   0  0  0  0  0  0  0  0  0  0  0  0
    3.0182   -0.8710   -0.1508 C   0  0  0  0  0  0  0  0  0  0  0  0
    3.8586    0.1702    0.0512 O   0  0  0  0  0  0  0  0  0  0  0  0
    3.3757   -2.0291   -0.1973 O   0  0  0  0  0  0  0  0  0  0  0  0
    1.0198    0.2633    0.8807 C   0  0  0  0  0  0  0  0  0  0  0  0
   -0.4520    0.6620    0.6857 C   0  0  0  0  0  0  0  0  0  0  0  0
   -3.1279   -1.1775    1.9618 Cl  0  0  0  0  0  0  0  0  0  0  0  0
   -4.0376    1.2625   -1.0356 H   0  0  0  0  0  0  0  0  0  0  0  0
   -3.0905    0.2847   -0.0825 H   0  0  0  0  0  0  0  0  0  0  0  0
   -2.8845    0.2948   -1.7330 H   0  0  0  0  0  0  0  0  0  0  0  0
   -2.3546    2.6214    0.0619 H   0  0  0  0  0  0  0  0  0  0  0  0
   -2.1349    2.6303   -1.6717 H   0  0  0  0  0  0  0  0  0  0  0  0
    0.0186    2.3671   -0.5194 H   0  0  0  0  0  0  0  0  0  0  0  0
   -0.2838    1.2342   -2.7466 H   0  0  0  0  0  0  0  0  0  0  0  0
   -0.7410   -0.2326   -1.9166 H   0  0  0  0  0  0  0  0  0  0  0  0
    1.9694    1.1682   -1.6062 H   0  0  0  0  0  0  0  0  0  0  0  0
    1.7022   -0.3081   -2.4957 H   0  0  0  0  0  0  0  0  0  0  0  0
    0.9997   -1.4683   -0.4066 H   0  0  0  0  0  0  0  0  0  0  0  0
    4.7589   -0.1734    0.1501 H   0  0  0  0  0  0  0  0  0  0  0  0
    1.6353    1.1593    1.0129 H   0  0  0  0  0  0  0  0  0  0  0  0
    1.1550   -0.3216    1.7985 H   0  0  0  0  0  0  0  0  0  0  0  0
   -0.8348    1.2146    1.5519 H   0  0  0  0  0  0  0  0  0  0  0  0
   -1.0620   -0.2440    0.6189 H   0  0  0  0  0  0  0  0  0  0  0  0
  1  2  1  0  0  0  0
  2  3  1  0  0  0  0
  3  4  1  0  0  0  0
  4  5  1  0  0  0  0
  5  6  1  0  0  0  0
  6  7  1  0  0  0  0
  7  8  1  0  0  0  0
  7  9  2  0  0  0  0
  6 10  1  0  0  0  0
  3 11  1  0  0  0  0
 10 11  1  0  0  0  0
  1 13  1  0  0  0  0
  1 14  1  0  0  0  0
  1 15  1  0  0  0  0
  2 16  1  0  0  0  0
  2 17  1  0  0  0  0
  3 18  1  0  0  0  0
  4 19  1  0  0  0  0
  4 20  1  0  0  0  0
  5 21  1  0  0  0  0
  5 22  1  0  0  0  0
  6 23  1  0  0  0  0
  8 24  1  0  0  0  0
 10 25  1  0  0  0  0
 10 26  1  0  0  0  0
 11 27  1  0  0  0  0
 11 28  1  0  0  0  0
M  END
