40
1.139
N           -6.52267  -3.28303  -0.63282
C           -7.40325  -2.10160  -0.86373
C           -7.42610  -1.13888   0.32473
C           -6.14936  -0.39412   0.52919
C           -6.04293   0.87114   1.01388
C           -4.70633   1.34147   1.12744
C           -3.76107   0.43594   0.73064
C           -2.33387   0.62867   0.73420
C           -1.67001   1.75848   1.13486
C           -0.26584   1.66799   1.02747
C            0.18015   0.46821   0.54100
C            1.55474   0.11366   0.32275
C            1.99936  -1.08215  -0.17569
C            3.40261  -1.16571  -0.29891
C            4.06515  -0.03723   0.10334
C            5.49253   0.14777   0.08170
C            6.15461   1.27341   0.48476
C            7.56550   1.18476   0.35476
C            7.98502  -0.00042  -0.14453
S            6.64703  -1.04389  -0.46924
S            2.91585   1.15650   0.65093
S           -1.18110  -0.57436   0.21520
S           -4.56109  -1.02138   0.20557
Cl           0.58537   1.51969  -2.74741
H           -5.57391  -2.95885  -0.40411
H           -6.46454  -3.89512  -1.45705
H           -6.85707  -3.84236   0.16189
H           -8.41777  -2.45076  -1.09136
H           -7.06835  -1.56316  -1.75777
H           -7.65936  -1.69445   1.23905
H           -8.23900  -0.41285   0.20448
H           -6.90132   1.46286   1.29217
H           -4.46008   2.32490   1.49553
H           -2.17529   2.63929   1.49784
H            0.40374   2.46914   1.29711
H            1.32952  -1.88106  -0.45129
H            3.91518  -2.03591  -0.67693
H            5.64463   2.14423   0.86520
H            8.23481   1.98669   0.62838
H            9.00771  -0.27381  -0.32211
