40
0.995
N           -7.49427   1.11370  -1.05697
C           -7.64727   0.84871   0.40130
C           -7.14789  -0.53849   0.79468
C           -5.69247  -0.72009   0.54191
C           -5.13634  -1.66440  -0.26050
C           -3.72038  -1.60053  -0.32564
C           -3.17776  -0.59887   0.42766
C           -1.77528  -0.29387   0.53204
C           -1.23569   0.71852   1.27892
C            0.17065   0.80313   1.20046
C            0.74120  -0.14338   0.39134
C            2.14725  -0.28225   0.13261
C            2.72030  -1.23119  -0.67202
C            4.12634  -1.14107  -0.75329
C            4.66278  -0.12135  -0.01389
C            6.06339   0.19711   0.08163
C            6.59844   1.21554   0.81949
C            8.01268   1.30334   0.73274
C            8.56098   0.35919  -0.06594
S            7.34404  -0.66782  -0.73591
S            3.38826   0.74574   0.80430
S           -0.50259  -1.16421  -0.28613
S           -4.44951   0.27169   1.24786
Cl          -4.15661   1.19788  -2.32488
H           -6.50089   1.06573  -1.33947
H           -7.84707   2.04449  -1.31768
H           -8.00506   0.41438  -1.61167
H           -8.69947   0.96961   0.68596
H           -7.09699   1.60881   0.96765
H           -7.70752  -1.30011   0.24121
H           -7.34826  -0.73319   1.85482
H           -5.72075  -2.39229  -0.80128
H           -3.12103  -2.27078  -0.92115
H           -1.83955   1.38928   1.86924
H            0.75180   1.54402   1.72599
H            2.14113  -1.97648  -1.19358
H            4.73164  -1.81104  -1.34291
H            5.99476   1.88632   1.41006
H            8.59047   2.05169   1.25434
H            9.60923   0.24762  -0.26811
