40
1.098
N           -7.54580  -1.01859   2.32253
C           -7.94581  -1.65129   1.03238
C           -7.58609  -0.79589  -0.18357
C           -6.12153  -0.71090  -0.45689
C           -5.55400  -0.61568  -1.68850
C           -4.13559  -0.52639  -1.67025
C           -3.59259  -0.54990  -0.41654
C           -2.19041  -0.46915  -0.10350
C           -1.65407  -0.49447   1.15574
C           -0.24716  -0.39018   1.18249
C            0.32644  -0.28051  -0.05646
C            1.73245  -0.14559  -0.31661
C            2.30628  -0.03165  -1.55509
C            3.71140   0.09559  -1.52646
C            4.24628   0.08185  -0.26630
C            5.64587   0.19670   0.05022
C            6.18027   0.18384   1.30805
C            7.59367   0.31485   1.33058
C            8.14191   0.42756   0.09904
S            6.92596   0.37543  -1.12703
S            2.97149  -0.09643   0.91224
S           -0.91383  -0.32053  -1.28442
S           -4.87563  -0.69358   0.75553
Cl           0.04131   3.13738   0.25569
H           -6.53836  -0.81352   2.29988
H           -7.73389  -1.62531   3.13131
H           -8.03832  -0.12786   2.46532
H           -9.02382  -1.85245   1.05197
H           -7.46381  -2.63117   0.93844
H           -7.97711   0.21738  -0.04450
H           -8.08665  -1.18545  -1.07802
H           -6.13354  -0.60239  -2.59857
H           -3.53421  -0.44327  -2.56180
H           -2.26063  -0.58161   2.04317
H            0.33166  -0.38775   2.09231
H            1.72800  -0.03622  -2.46529
H            4.31710   0.19654  -2.41293
H            5.57679   0.08325   2.19621
H            8.17094   0.32343   2.24306
H            9.18953   0.53580  -0.10813
