15
 xtb: 6.5.1 (fef0646)
N            0.70671853620313       -1.42116692872627       -0.55110516221718
C            1.58575074383727       -0.94040138778603        0.55352903434319
C            1.64352516596478        0.58362220493420        0.64702304409672
C            2.28006832031635        1.23082914703502       -0.57370862516823
Cl          -2.65407189460430        0.32604272516478        0.03687270449358
H           -0.31975051062910       -0.95134584789920       -0.41472515574646
H            0.49679618542081       -2.39966629113925       -0.54953088061827
H            0.96235406249895       -1.09057028475652       -1.46229059930136
H            2.53134516917447       -1.35316844949883        0.38617951963128
H            1.19211627579294       -1.34816142376713        1.50565916289010
H            2.20002010155094        0.86875226466113        1.54868157234948
H            0.62657224711693        1.00626805222085        0.81163493528946
H            3.26218352855328        0.82896877380601       -0.75834783553671
H            2.36202186246115        2.31353678264977       -0.46802963211340
H            1.67261553858908        1.04841293047997       -1.47351769421356
