24

N          0.94827       -0.22182       -0.02393
C          2.41938       -0.08221       -0.01701
C          2.93698        0.07098        1.38064
C          3.29393       -1.05423        2.13438
C          3.76422       -0.90811        3.44101
C          3.03172        1.34288        1.96913
C          3.50830        1.50266        3.28164
C          3.88445        0.36092        4.02470
C          4.38310        0.52067        5.32717
C          4.50831        1.79036        5.89130
C          4.12900        2.91466        5.16422
C          3.62883        2.77297        3.86945
H          0.58086       -0.33157       -0.97565
H          0.50561        0.60167        0.40230
H          0.66151       -1.03718        0.53137
H          2.66476        0.78813       -0.63469
H          2.83045       -0.97301       -0.50335
H          3.23524       -2.05857        1.71821
H          4.04973       -1.79549        4.00519
H          2.75705        2.23178        1.40263
H          4.68863       -0.34394        5.91421
H          4.90668        1.90159        6.89741
H          4.22875        3.90369        5.60583
H          3.34663        3.67005        3.32232
