 xtb: 6.5.1 (fef0646)
          01242315143D

 24 25  0     0  0            999 V2000
    0.9331   -0.2404    0.0198 N   0  0  0  0  0  0  0  0  0  0  0  0
    2.4124   -0.0662   -0.0132 C   0  0  0  0  0  0  0  0  0  0  0  0
    2.9476    0.1007    1.3845 C   0  0  0  0  0  0  0  0  0  0  0  0
    3.3037   -1.0382    2.1340 C   0  0  0  0  0  0  0  0  0  0  0  0
    3.7669   -0.9124    3.4127 C   0  0  0  0  0  0  0  0  0  0  0  0
    3.0627    1.3462    1.9460 C   0  0  0  0  0  0  0  0  0  0  0  0
    3.5338    1.5093    3.2643 C   0  0  0  0  0  0  0  0  0  0  0  0
    3.8924    0.3581    4.0140 C   0  0  0  0  0  0  0  0  0  0  0  0
    4.3662    0.5216    5.3320 C   0  0  0  0  0  0  0  0  0  0  0  0
    4.4766    1.7681    5.8825 C   0  0  0  0  0  0  0  0  0  0  0  0
    4.1194    2.9066    5.1416 C   0  0  0  0  0  0  0  0  0  0  0  0
    3.6587    2.7815    3.8610 C   0  0  0  0  0  0  0  0  0  0  0  0
    0.5617   -0.3607   -0.9298 H   0  0  0  0  0  0  0  0  0  0  0  0
    0.4920    0.5820    0.4479 H   0  0  0  0  0  0  0  0  0  0  0  0
    0.6862   -1.0647    0.5804 H   0  0  0  0  0  0  0  0  0  0  0  0
    2.6512    0.8139   -0.6096 H   0  0  0  0  0  0  0  0  0  0  0  0
    2.8615   -0.9431   -0.4793 H   0  0  0  0  0  0  0  0  0  0  0  0
    3.2271   -2.0179    1.6877 H   0  0  0  0  0  0  0  0  0  0  0  0
    4.0481   -1.7836    3.9855 H   0  0  0  0  0  0  0  0  0  0  0  0
    2.8082    2.2336    1.3857 H   0  0  0  0  0  0  0  0  0  0  0  0
    4.6417   -0.3549    5.9009 H   0  0  0  0  0  0  0  0  0  0  0  0
    4.8406    1.8878    6.8925 H   0  0  0  0  0  0  0  0  0  0  0  0
    4.2143    3.8818    5.5960 H   0  0  0  0  0  0  0  0  0  0  0  0
    3.3863    3.6578    3.2914 H   0  0  0  0  0  0  0  0  0  0  0  0
  1  2  1  0  0  0  0
  2  3  1  0  0  0  0
  3  4  4  0  0  0  0
  4  5  2  0  0  0  0
  3  6  2  0  0  0  0
  6  7  4  0  0  0  0
  5  8  4  0  0  0  0
  7  8  4  0  0  0  0
  8  9  4  0  0  0  0
  9 10  2  0  0  0  0
 10 11  4  0  0  0  0
  7 12  4  0  0  0  0
 11 12  2  0  0  0  0
  1 13  1  0  0  0  0
  1 14  1  0  0  0  0
  1 15  1  0  0  0  0
  2 16  1  0  0  0  0
  2 17  1  0  0  0  0
  4 18  1  0  0  0  0
  5 19  1  0  0  0  0
  6 20  1  0  0  0  0
  9 21  1  0  0  0  0
 10 22  1  0  0  0  0
 11 23  1  0  0  0  0
 12 24  1  0  0  0  0
M  CHG  1   1   1
M  END
