 xtb: 6.5.1 (fef0646)
          01232318483D

 24 25  0     0  0            999 V2000
    0.9923    0.0822    0.1118 N   0  0  0  0  0  0  0  0  0  0  0  0
    2.5041    0.0656    0.0868 C   0  0  0  0  0  0  0  0  0  0  0  0
    2.9688   -0.0216   -1.3372 C   0  0  0  0  0  0  0  0  0  0  0  0
    3.0811   -1.2860   -1.9517 C   0  0  0  0  0  0  0  0  0  0  0  0
    3.4833   -1.3856   -3.2530 C   0  0  0  0  0  0  0  0  0  0  0  0
    3.2488    1.1165   -2.0526 C   0  0  0  0  0  0  0  0  0  0  0  0
    3.6636    1.0441   -3.3963 C   0  0  0  0  0  0  0  0  0  0  0  0
    3.7852   -0.2335   -4.0094 C   0  0  0  0  0  0  0  0  0  0  0  0
    4.2113   -0.3085   -5.3510 C   0  0  0  0  0  0  0  0  0  0  0  0
    4.4999    0.8294   -6.0527 C   0  0  0  0  0  0  0  0  0  0  0  0
    4.3750    2.0911   -5.4481 C   0  0  0  0  0  0  0  0  0  0  0  0
    3.9659    2.1989   -4.1483 C   0  0  0  0  0  0  0  0  0  0  0  0
    0.6244    0.1284    1.0701 H   0  0  0  0  0  0  0  0  0  0  0  0
    0.6403   -0.7683   -0.3474 H   0  0  0  0  0  0  0  0  0  0  0  0
    0.6548    0.8943   -0.4213 H   0  0  0  0  0  0  0  0  0  0  0  0
    2.8391   -0.7970    0.6638 H   0  0  0  0  0  0  0  0  0  0  0  0
    2.8597    0.9791    0.5637 H   0  0  0  0  0  0  0  0  0  0  0  0
    2.8699   -2.1769   -1.3778 H   0  0  0  0  0  0  0  0  0  0  0  0
    3.5819   -2.3536   -3.7199 H   0  0  0  0  0  0  0  0  0  0  0  0
    3.1750    2.0900   -1.5875 H   0  0  0  0  0  0  0  0  0  0  0  0
    4.3078   -1.2799   -5.8121 H   0  0  0  0  0  0  0  0  0  0  0  0
    4.8280    0.7663   -7.0786 H   0  0  0  0  0  0  0  0  0  0  0  0
    4.6075    2.9765   -6.0194 H   0  0  0  0  0  0  0  0  0  0  0  0
    3.8725    3.1668   -3.6784 H   0  0  0  0  0  0  0  0  0  0  0  0
  1  2  1  0  0  0  0
  2  3  1  0  0  0  0
  3  4  4  0  0  0  0
  4  5  2  0  0  0  0
  3  6  2  0  0  0  0
  6  7  4  0  0  0  0
  5  8  4  0  0  0  0
  7  8  4  0  0  0  0
  8  9  4  0  0  0  0
  9 10  2  0  0  0  0
 10 11  4  0  0  0  0
  7 12  4  0  0  0  0
 11 12  2  0  0  0  0
  1 13  1  0  0  0  0
  1 14  1  0  0  0  0
  1 15  1  0  0  0  0
  2 16  1  0  0  0  0
  2 17  1  0  0  0  0
  4 18  1  0  0  0  0
  5 19  1  0  0  0  0
  6 20  1  0  0  0  0
  9 21  1  0  0  0  0
 10 22  1  0  0  0  0
 11 23  1  0  0  0  0
 12 24  1  0  0  0  0
M  CHG  1   1   1
M  END
