  25

 N         -3.5506948891        1.9863634817        0.2329577121
 C         -4.0203946557        0.6685143104        0.7523549648
 C         -3.5688923725       -0.5147384317       -0.1075710048
 C         -2.1056624975       -0.7838848918       -0.0472879944
 C         -1.5021843353       -2.0187550316       -0.1491892395
 C         -0.1062629142       -1.9891450770       -0.0827795766
 C          0.4284542635       -0.7131676272        0.0755441173
 C          1.7881005057       -0.3617408213        0.1712816611
 C          2.8850959664       -1.2184900401        0.1217458193
 C          4.1135548891       -0.5676351441        0.2450538823
 C          4.0080727660        0.7910692745        0.3921139432
 S          2.3693855798        1.2731532944        0.3773903589
 S         -0.8926540798        0.4246477119        0.1399998697
 H         -3.8456558831        2.7661841814        0.8400658115
 H         -3.9219208006        2.1679116889       -0.7113430189
 H         -2.5223899906        2.0095653279        0.1705566147
 H         -5.1152079780        0.6896700462        0.8232702509
 H         -3.6580578959        0.5321599228        1.7781120018
 H         -3.8506266597       -0.3342305255       -1.1497963248
 H         -4.1048040279       -1.4218449475        0.1925270048
 H         -2.0647482164       -2.9308682884       -0.2788912468
 H          0.5032533657       -2.8762983797       -0.1508780870
 H          2.7933300661       -2.2863940371        0.0009720464
 H          5.0614775059       -1.0865899078        0.2257780070
 H          4.8301662507        1.4733443991        0.5027813957
          25
        -36.48776513
 N         -3.6326058966       -1.8842003635        0.1454321039
 C         -4.0584054901       -0.6286528204       -0.5390340343
 C         -3.5790871824        0.6385164204        0.1741265432
 C         -2.1085748057        0.8589239315        0.0951644650
 C         -1.4735784501        2.0805541346        0.0386185186
 C         -0.0784705471        2.0072314996       -0.0073023050
 C          0.4240212328        0.7088349649        0.0148615693
 C          1.7758736071        0.3173067695       -0.0120523312
 C          2.8921753200        1.1483353098       -0.0707041799
 C          4.1062842696        0.4599534714       -0.0814819086
 C          3.9704307454       -0.9032675936       -0.0328200919
 S          2.3206976582       -1.3426650686        0.0261990759
 S         -0.9265941454       -0.3940187529        0.0839393052
 H         -3.9523251527       -2.7253271462       -0.3585281701
 H         -4.0114206778       -1.9313633822        1.1027636059
 H         -2.6053568811       -1.9325668223        0.2168778030
 H         -5.1527231455       -0.6270745756       -0.6201867508
 H         -3.6834281142       -0.6309789007       -1.5691947165
 H         -3.8718970433        0.5945495792        1.2282026247
 H         -4.0880971539        1.5164827396       -0.2391060741
 H         -2.0125956813        3.0157995583        0.0364452691
 H          0.5534499255        2.8799913090       -0.0514270919
 H          2.8249655942        2.2243943393       -0.1030759850
 H          5.0655972450        0.9562870933       -0.1233147225
 H          4.7787171269       -1.6107420607       -0.0313601775
