  25

 N          3.2237877112        1.3319620695        0.9336590625
 C          2.6688148263        0.1196775062        0.2692736683
 C          3.0307479781        0.1466598545       -1.2185905878
 C          4.5087345597        0.0703541981       -1.4186359435
 C          5.2656474029       -0.9867548346       -1.8125352866
 C          6.6498022083       -0.7202702184       -1.8198360542
 C          6.9759538668        0.5461136138       -1.4162322356
 C          8.2594807023        1.1530936722       -1.2790411830
 C          9.4780670625        0.6508915241       -1.6683531218
 C         10.5435033500        1.5167294150       -1.3692101902
 C         10.1409530749        2.6624943153       -0.7562622284
 S          8.4455238167        2.7182165322       -0.5329360261
 S          5.5297391428        1.4574658300       -1.0652649419
 H          3.1772018235        1.2712493920        1.9553892450
 H          2.7229034339        2.1723389542        0.6230211033
 H          4.2240451104        1.4318581197        0.6164699422
 H          1.5875022452        0.0936515792        0.4051223896
 H          3.1090252059       -0.7610280877        0.7386647865
 H          2.6268550446        1.0503649669       -1.6799160479
 H          2.5653292598       -0.7115739015       -1.7024094982
 H          4.8512105261       -1.9378272641       -2.0943726463
 H          7.3878784403       -1.4453272935       -2.1061442203
 H          9.5992310846       -0.2965080450       -2.1595188008
 H         11.5700192170        1.2996795726       -1.6005937506
 H         10.7392029062        3.4861885293       -0.4210074344
