28
1.948
N           -2.51504  -0.93804   0.85783
C           -2.24673  -1.59013  -0.45588
C           -0.78929  -1.99584  -0.65357
C            0.21866  -0.82003  -0.61107
C            1.41238  -1.05648  -1.57011
C            2.39224   0.12921  -1.55700
C            2.90528   0.40604  -0.13348
C            1.73450   0.63761   0.83618
C            0.75795  -0.54992   0.81624
Cl          -1.31210   2.34490   0.89027
H           -2.08200   0.00164   0.90741
H           -2.13977  -1.50339   1.63795
H           -3.52820  -0.81084   1.02593
H           -2.55410  -0.91545  -1.26179
H           -2.89330  -2.47278  -0.55500
H           -0.68744  -2.51615  -1.61547
H           -0.50211  -2.73740   0.10086
H           -0.30036   0.08930  -0.95475
H            1.04979  -1.25661  -2.58710
H            1.93435  -1.96979  -1.26121
H            1.88410   1.02355  -1.93983
H            3.22930  -0.04885  -2.24671
H            3.59417   1.26216  -0.12594
H            3.49936  -0.44981   0.21165
H            1.20066   1.55143   0.54614
H            2.10090   0.82500   1.85538
H           -0.06417  -0.39559   1.52488
H            1.27437  -1.45072   1.16852
