26

N          1.14414       -0.03859       -0.70081
C          2.60015        0.06554       -0.76059
C          3.09474        1.24792        0.07558
C          4.60284        1.35642        0.06680
C          5.29239        1.57539       -1.06781
C          6.79177        1.61437       -1.13676
C          7.45434        1.04298        0.11563
C          6.78160        1.57903        1.37337
C          5.29424        1.21495        1.40547
Cl        -0.74233        1.62265        0.55390
H          0.68805       -0.75562       -1.26315
H          0.64755        0.86168       -0.90418
H          0.76199       -0.11109        0.26502
H          2.86054        0.17596       -1.81785
H          3.00254       -0.88402       -0.39308
H          2.73916        1.13402        1.10779
H          2.66606        2.18724       -0.29572
H          4.77343        1.73491       -2.01082
H          7.10743        2.65294       -1.28973
H          7.12666        1.04239       -2.00944
H          8.52052        1.29433        0.11743
H          7.38352       -0.05237        0.10353
H          6.89315        2.67050        1.40690
H          7.27750        1.18200        2.26619
H          4.80047        1.85342        2.14833
H          5.18189        0.17783        1.74465
