13
1.733
N            0.63890  -0.82456  -0.66971
C            1.52507  -0.07765   0.26494
C            1.76522   1.39414   0.02966
C            2.87450   0.39799  -0.21695
Cl          -2.70165  -0.28411   0.29799
H            0.85554  -1.82991  -0.66339
H            0.75510  -0.48056  -1.63164
H           -0.35471  -0.70140  -0.40874
H            1.45016  -0.41501   1.30492
H            1.83277   2.05654   0.89410
H            1.27347   1.85775  -0.82592
H            3.71733   0.36428   0.47527
H            3.15725   0.16954  -1.24487
