27

N          3.29615        0.60980       -1.02828
C          2.40151       -0.05690       -0.04446
C          0.99474        0.51081       -0.19803
C          2.93870        0.07634        1.35943
C          3.31101       -1.06970        2.07575
C          3.80448       -0.96678        3.37912
C          3.07644        1.33035        1.98376
C          3.58234        1.44842        3.28974
C          3.95087        0.28246        3.99694
C          4.45302        0.39895        5.30253
C          4.59572        1.65059        5.90170
C          4.23235        2.80013        5.20703
C          3.72487        2.69981        3.91059
H          4.25800        0.26198       -0.92302
H          3.32526        1.62569       -0.88562
H          2.99907        0.42946       -1.99430
H          2.39100       -1.11162       -0.34397
H          0.95059        1.57907        0.04094
H          0.29832       -0.00609        0.47182
H          0.63008        0.38437       -1.22293
H          3.21051       -2.06544        1.64548
H          4.07073       -1.87563        3.91802
H          2.77439        2.24080        1.46827
H          4.73776       -0.48637        5.86812
H          4.98891        1.72795        6.91277
H          4.34115        3.77454        5.67691
H          3.44190        3.61494        3.39460
