 xtb: 6.5.1 (fef0646)
          01242316553D

 27 28  0     0  0            999 V2000
    3.3057    0.6768   -0.9975 N   0  0  0  0  0  0  0  0  0  0  0  0
    2.4253   -0.0648   -0.0437 C   0  0  0  0  0  0  0  0  0  0  0  0
    1.0033    0.4697   -0.1654 C   0  0  0  0  0  0  0  0  0  0  0  0
    2.9590    0.0757    1.3636 C   0  0  0  0  0  0  0  0  0  0  0  0
    3.2960   -1.0799    2.0944 C   0  0  0  0  0  0  0  0  0  0  0  0
    3.7691   -0.9847    3.3725 C   0  0  0  0  0  0  0  0  0  0  0  0
    3.1084    1.3095    1.9457 C   0  0  0  0  0  0  0  0  0  0  0  0
    3.5962    1.4413    3.2605 C   0  0  0  0  0  0  0  0  0  0  0  0
    3.9360    0.2720    3.9905 C   0  0  0  0  0  0  0  0  0  0  0  0
    4.4243    0.4058    5.3067 C   0  0  0  0  0  0  0  0  0  0  0  0
    4.5670    1.6413    5.8742 C   0  0  0  0  0  0  0  0  0  0  0  0
    4.2283    2.7981    5.1528 C   0  0  0  0  0  0  0  0  0  0  0  0
    3.7547    2.7018    3.8746 C   0  0  0  0  0  0  0  0  0  0  0  0
    4.2608    0.3017   -0.9793 H   0  0  0  0  0  0  0  0  0  0  0  0
    3.3430    1.6696   -0.7376 H   0  0  0  0  0  0  0  0  0  0  0  0
    2.9348    0.6050   -1.9524 H   0  0  0  0  0  0  0  0  0  0  0  0
    2.4400   -1.1209   -0.3230 H   0  0  0  0  0  0  0  0  0  0  0  0
    0.9583    1.5274    0.0760 H   0  0  0  0  0  0  0  0  0  0  0  0
    0.3547   -0.0538    0.5303 H   0  0  0  0  0  0  0  0  0  0  0  0
    0.6130    0.3133   -1.1669 H   0  0  0  0  0  0  0  0  0  0  0  0
    3.1720   -2.0515    1.6409 H   0  0  0  0  0  0  0  0  0  0  0  0
    4.0241   -1.8730    3.9316 H   0  0  0  0  0  0  0  0  0  0  0  0
    2.8423    2.2183    1.4267 H   0  0  0  0  0  0  0  0  0  0  0  0
    4.6835   -0.4855    5.8602 H   0  0  0  0  0  0  0  0  0  0  0  0
    4.9407    1.7375    6.8831 H   0  0  0  0  0  0  0  0  0  0  0  0
    4.3460    3.7641    5.6212 H   0  0  0  0  0  0  0  0  0  0  0  0
    3.4933    3.5931    3.3233 H   0  0  0  0  0  0  0  0  0  0  0  0
  1  2  1  0  0  0  0
  2  3  1  0  0  0  0
  2  4  1  0  0  0  0
  4  5  4  0  0  0  0
  5  6  2  0  0  0  0
  4  7  2  0  0  0  0
  7  8  4  0  0  0  0
  6  9  4  0  0  0  0
  8  9  4  0  0  0  0
  9 10  4  0  0  0  0
 10 11  2  0  0  0  0
 11 12  4  0  0  0  0
  8 13  4  0  0  0  0
 12 13  2  0  0  0  0
  1 14  1  0  0  0  0
  1 15  1  0  0  0  0
  1 16  1  0  0  0  0
  2 17  1  0  0  0  0
  3 18  1  0  0  0  0
  3 19  1  0  0  0  0
  3 20  1  0  0  0  0
  5 21  1  0  0  0  0
  6 22  1  0  0  0  0
  7 23  1  0  0  0  0
 10 24  1  0  0  0  0
 11 25  1  0  0  0  0
 12 26  1  0  0  0  0
 13 27  1  0  0  0  0
M  CHG  1   1   1
M  END
