23
0.781
N           -2.74195  -0.79817   0.01267
C           -1.76848  -0.03391  -0.82252
C           -1.05928   1.07943  -0.05545
C           -0.17616   0.59032   1.09681
C            0.96852  -0.33826   0.67676
C            1.98894   0.31681  -0.25742
C            3.14743  -0.60655  -0.60965
H           -3.44423  -0.16980   0.41668
H           -2.27090  -1.28136   0.78522
H           -3.23404  -1.50679  -0.54206
H           -2.30117   0.38801  -1.68368
H           -1.03434  -0.72595  -1.24821
H           -1.81425   1.77275   0.33284
H           -0.45549   1.67866  -0.74621
H           -0.80342   0.08716   1.84102
H            0.24712   1.45403   1.62362
H            0.56451  -1.23768   0.20074
H            1.49138  -0.70426   1.56867
H            2.36966   1.23354   0.20890
H            1.48925   0.64759  -1.17518
H            2.79344  -1.51086  -1.10592
H            3.68889  -0.91838   0.28408
H            3.86427  -0.12476  -1.27662
