 xtb: 6.5.1 (fef0646)
          01242310043D

 24 24  0     0  0            999 V2000
   -1.9491    0.0505   -1.1343 N   0  0  0  0  0  0  0  0  0  0  0  0
   -1.9460   -0.0327    0.3526 C   0  0  0  0  0  0  0  0  0  0  0  0
   -0.5602   -0.0113    1.0291 C   0  0  0  0  0  0  0  0  0  0  0  0
    0.2526    1.2912    0.7677 C   0  0  0  0  0  0  0  0  0  0  0  0
    1.1284    1.2560   -0.4988 C   0  0  0  0  0  0  0  0  0  0  0  0
    2.0163    0.0046   -0.5392 C   0  0  0  0  0  0  0  0  0  0  0  0
    1.1619   -1.2692   -0.4743 C   0  0  0  0  0  0  0  0  0  0  0  0
    0.2828   -1.3000    0.7896 C   0  0  0  0  0  0  0  0  0  0  0  0
   -2.9103    0.0063   -1.5062 H   0  0  0  0  0  0  0  0  0  0  0  0
   -1.4295   -0.7271   -1.5641 H   0  0  0  0  0  0  0  0  0  0  0  0
   -1.5447    0.9365   -1.4685 H   0  0  0  0  0  0  0  0  0  0  0  0
   -2.4784   -0.9437    0.6517 H   0  0  0  0  0  0  0  0  0  0  0  0
   -2.5500    0.7960    0.7423 H   0  0  0  0  0  0  0  0  0  0  0  0
   -0.7746   -0.0066    2.1149 H   0  0  0  0  0  0  0  0  0  0  0  0
    0.8929    1.5032    1.6325 H   0  0  0  0  0  0  0  0  0  0  0  0
   -0.4427    2.1381    0.7136 H   0  0  0  0  0  0  0  0  0  0  0  0
    1.7484    2.1616   -0.5578 H   0  0  0  0  0  0  0  0  0  0  0  0
    0.5017    1.2854   -1.3958 H   0  0  0  0  0  0  0  0  0  0  0  0
    2.7101    0.0221    0.3100 H   0  0  0  0  0  0  0  0  0  0  0  0
    2.6512    0.0043   -1.4359 H   0  0  0  0  0  0  0  0  0  0  0  0
    1.8071   -2.1582   -0.5095 H   0  0  0  0  0  0  0  0  0  0  0  0
    0.5397   -1.3396   -1.3722 H   0  0  0  0  0  0  0  0  0  0  0  0
    0.9250   -1.4839    1.6597 H   0  0  0  0  0  0  0  0  0  0  0  0
   -0.3931   -2.1632    0.7477 H   0  0  0  0  0  0  0  0  0  0  0  0
  1  2  1  0  0  0  0
  2  3  1  0  0  0  0
  3  4  1  0  0  0  0
  4  5  1  0  0  0  0
  5  6  1  0  0  0  0
  6  7  1  0  0  0  0
  3  8  1  0  0  0  0
  7  8  1  0  0  0  0
  1  9  1  0  0  0  0
  1 10  1  0  0  0  0
  1 11  1  0  0  0  0
  2 12  1  0  0  0  0
  2 13  1  0  0  0  0
  3 14  1  0  0  0  0
  4 15  1  0  0  0  0
  4 16  1  0  0  0  0
  5 17  1  0  0  0  0
  5 18  1  0  0  0  0
  6 19  1  0  0  0  0
  6 20  1  0  0  0  0
  7 21  1  0  0  0  0
  7 22  1  0  0  0  0
  8 23  1  0  0  0  0
  8 24  1  0  0  0  0
M  CHG  1   1   1
M  END
