 xtb: 6.5.1 (fef0646)
          01242314563D

 14 13  0     0  0            999 V2000
    1.0005    0.0375    0.0815 N   0  0  0  0  0  0  0  0  0  0  0  0
    2.4841    0.0540    0.0802 C   0  0  0  0  0  0  0  0  0  0  0  0
    3.0126    1.4632    0.3272 C   0  0  0  0  0  0  0  0  0  0  0  0
    4.5377    1.4678    0.3303 C   0  0  0  0  0  0  0  0  0  0  0  0
    0.6467   -0.9109   -0.0874 H   0  0  0  0  0  0  0  0  0  0  0  0
    0.6404    0.6596   -0.6518 H   0  0  0  0  0  0  0  0  0  0  0  0
    0.6444    0.3669    0.9866 H   0  0  0  0  0  0  0  0  0  0  0  0
    2.8453   -0.3075   -0.8825 H   0  0  0  0  0  0  0  0  0  0  0  0
    2.8503   -0.6150    0.8589 H   0  0  0  0  0  0  0  0  0  0  0  0
    2.6591    1.8356    1.2894 H   0  0  0  0  0  0  0  0  0  0  0  0
    2.6616    2.1396   -0.4531 H   0  0  0  0  0  0  0  0  0  0  0  0
    4.9267    0.8212    1.1132 H   0  0  0  0  0  0  0  0  0  0  0  0
    4.9157    2.4716    0.5050 H   0  0  0  0  0  0  0  0  0  0  0  0
    4.9294    1.1224   -0.6234 H   0  0  0  0  0  0  0  0  0  0  0  0
  1  2  1  0  0  0  0
  2  3  1  0  0  0  0
  3  4  1  0  0  0  0
  1  5  1  0  0  0  0
  1  6  1  0  0  0  0
  1  7  1  0  0  0  0
  2  8  1  0  0  0  0
  2  9  1  0  0  0  0
  3 10  1  0  0  0  0
  3 11  1  0  0  0  0
  4 12  1  0  0  0  0
  4 13  1  0  0  0  0
  4 14  1  0  0  0  0
M  CHG  1   1   1
M  END
