 xtb: 6.5.1 (fef0646)
          01242310113D

 41 40  0     0  0            999 V2000
   -5.8515   -1.4704   -0.6840 N   0  0  0  0  0  0  0  0  0  0  0  0
   -5.6325   -0.7581    0.6068 C   0  0  0  0  0  0  0  0  0  0  0  0
   -5.2639    0.7102    0.4204 C   0  0  0  0  0  0  0  0  0  0  0  0
   -3.9545    0.9380   -0.3387 C   0  0  0  0  0  0  0  0  0  0  0  0
   -2.7197    0.3877    0.3770 C   0  0  0  0  0  0  0  0  0  0  0  0
   -1.4130    0.7026   -0.3532 C   0  0  0  0  0  0  0  0  0  0  0  0
   -0.1767    0.1496    0.3572 C   0  0  0  0  0  0  0  0  0  0  0  0
    1.1299    0.4702   -0.3703 C   0  0  0  0  0  0  0  0  0  0  0  0
    2.3664   -0.0870    0.3364 C   0  0  0  0  0  0  0  0  0  0  0  0
    3.6720    0.2301   -0.3944 C   0  0  0  0  0  0  0  0  0  0  0  0
    4.9088   -0.3307    0.3092 C   0  0  0  0  0  0  0  0  0  0  0  0
    6.2145   -0.0145   -0.4228 C   0  0  0  0  0  0  0  0  0  0  0  0
    7.4410   -0.5761    0.2794 C   0  0  0  0  0  0  0  0  0  0  0  0
   -4.9919   -1.5027   -1.2521 H   0  0  0  0  0  0  0  0  0  0  0  0
   -6.5764   -0.9997   -1.2460 H   0  0  0  0  0  0  0  0  0  0  0  0
   -6.1591   -2.4443   -0.5368 H   0  0  0  0  0  0  0  0  0  0  0  0
   -4.8540   -1.2739    1.1801 H   0  0  0  0  0  0  0  0  0  0  0  0
   -6.5422   -0.8415    1.2156 H   0  0  0  0  0  0  0  0  0  0  0  0
   -5.2007    1.2034    1.3983 H   0  0  0  0  0  0  0  0  0  0  0  0
   -6.0849    1.2143   -0.1043 H   0  0  0  0  0  0  0  0  0  0  0  0
   -3.8119    2.0117   -0.5142 H   0  0  0  0  0  0  0  0  0  0  0  0
   -4.0231    0.4972   -1.3394 H   0  0  0  0  0  0  0  0  0  0  0  0
   -2.8125   -0.6967    0.5023 H   0  0  0  0  0  0  0  0  0  0  0  0
   -2.6764    0.7914    1.3952 H   0  0  0  0  0  0  0  0  0  0  0  0
   -1.3120    1.7875   -0.4733 H   0  0  0  0  0  0  0  0  0  0  0  0
   -1.4582    0.3059   -1.3740 H   0  0  0  0  0  0  0  0  0  0  0  0
   -0.2752   -0.9359    0.4735 H   0  0  0  0  0  0  0  0  0  0  0  0
   -0.1338    0.5433    1.3792 H   0  0  0  0  0  0  0  0  0  0  0  0
    1.2300    1.5559   -0.4835 H   0  0  0  0  0  0  0  0  0  0  0  0
    1.0853    0.0798   -1.3935 H   0  0  0  0  0  0  0  0  0  0  0  0
    2.2651   -1.1723    0.4519 H   0  0  0  0  0  0  0  0  0  0  0  0
    2.4132    0.3055    1.3589 H   0  0  0  0  0  0  0  0  0  0  0  0
    3.7747    1.3156   -0.5077 H   0  0  0  0  0  0  0  0  0  0  0  0
    3.6236   -0.1601   -1.4175 H   0  0  0  0  0  0  0  0  0  0  0  0
    4.8060   -1.4162    0.4229 H   0  0  0  0  0  0  0  0  0  0  0  0
    4.9581    0.0597    1.3324 H   0  0  0  0  0  0  0  0  0  0  0  0
    6.3117    1.0726   -0.5362 H   0  0  0  0  0  0  0  0  0  0  0  0
    6.1581   -0.4028   -1.4475 H   0  0  0  0  0  0  0  0  0  0  0  0
    7.3823   -1.6622    0.3700 H   0  0  0  0  0  0  0  0  0  0  0  0
    7.5380   -0.1731    1.2889 H   0  0  0  0  0  0  0  0  0  0  0  0
    8.3632   -0.3417   -0.2568 H   0  0  0  0  0  0  0  0  0  0  0  0
  1  2  1  0  0  0  0
  2  3  1  0  0  0  0
  3  4  1  0  0  0  0
  4  5  1  0  0  0  0
  5  6  1  0  0  0  0
  6  7  1  0  0  0  0
  7  8  1  0  0  0  0
  8  9  1  0  0  0  0
  9 10  1  0  0  0  0
 10 11  1  0  0  0  0
 11 12  1  0  0  0  0
 12 13  1  0  0  0  0
  1 14  1  0  0  0  0
  1 15  1  0  0  0  0
  1 16  1  0  0  0  0
  2 17  1  0  0  0  0
  2 18  1  0  0  0  0
  3 19  1  0  0  0  0
  3 20  1  0  0  0  0
  4 21  1  0  0  0  0
  4 22  1  0  0  0  0
  5 23  1  0  0  0  0
  5 24  1  0  0  0  0
  6 25  1  0  0  0  0
  6 26  1  0  0  0  0
  7 27  1  0  0  0  0
  7 28  1  0  0  0  0
  8 29  1  0  0  0  0
  8 30  1  0  0  0  0
  9 31  1  0  0  0  0
  9 32  1  0  0  0  0
 10 33  1  0  0  0  0
 10 34  1  0  0  0  0
 11 35  1  0  0  0  0
 11 36  1  0  0  0  0
 12 37  1  0  0  0  0
 12 38  1  0  0  0  0
 13 39  1  0  0  0  0
 13 40  1  0  0  0  0
 13 41  1  0  0  0  0
M  CHG  1   1   1
M  END
