 xtb: 6.5.1 (fef0646)
          01232318443D

 22 21  0     0  0            999 V2000
   -1.7486   -0.1223   -0.0206 N   0  0  0  0  0  0  0  0  0  0  0  0
   -0.5389   -0.2308   -0.8395 C   0  0  0  0  0  0  0  0  0  0  0  0
    0.2613    1.0707   -0.7523 C   0  0  0  0  0  0  0  0  0  0  0  0
    0.9223    1.2508    0.6121 C   0  0  0  0  0  0  0  0  0  0  0  0
    1.8030    0.0510    0.9485 C   0  0  0  0  0  0  0  0  0  0  0  0
    0.9879   -1.2382    0.9178 C   0  0  0  0  0  0  0  0  0  0  0  0
    0.3408   -1.4279   -0.4524 C   0  0  0  0  0  0  0  0  0  0  0  0
   -3.3928    2.1348   -0.8275 Cl  0  0  0  0  0  0  0  0  0  0  0  0
   -2.5914    1.0597   -0.4466 H   0  0  0  0  0  0  0  0  0  0  0  0
   -1.5088    0.0195    0.9543 H   0  0  0  0  0  0  0  0  0  0  0  0
   -2.3194   -0.9559   -0.1010 H   0  0  0  0  0  0  0  0  0  0  0  0
   -0.8827   -0.3629   -1.8720 H   0  0  0  0  0  0  0  0  0  0  0  0
   -0.4041    1.9084   -0.9593 H   0  0  0  0  0  0  0  0  0  0  0  0
    1.0337    1.0503   -1.5227 H   0  0  0  0  0  0  0  0  0  0  0  0
    0.1602    1.3785    1.3838 H   0  0  0  0  0  0  0  0  0  0  0  0
    1.5250    2.1602    0.6011 H   0  0  0  0  0  0  0  0  0  0  0  0
    2.2529    0.1823    1.9344 H   0  0  0  0  0  0  0  0  0  0  0  0
    2.6120   -0.0188    0.2181 H   0  0  0  0  0  0  0  0  0  0  0  0
    0.2208   -1.2046    1.6962 H   0  0  0  0  0  0  0  0  0  0  0  0
    1.6320   -2.0922    1.1357 H   0  0  0  0  0  0  0  0  0  0  0  0
   -0.2576   -2.3429   -0.4612 H   0  0  0  0  0  0  0  0  0  0  0  0
    1.1240   -1.5382   -1.2044 H   0  0  0  0  0  0  0  0  0  0  0  0
  1  2  1  0  0  0  0
  2  3  1  0  0  0  0
  3  4  1  0  0  0  0
  4  5  1  0  0  0  0
  5  6  1  0  0  0  0
  2  7  1  0  0  0  0
  6  7  1  0  0  0  0
  8  9  1  0  0  0  0
  1 10  1  0  0  0  0
  1 11  1  0  0  0  0
  2 12  1  0  0  0  0
  3 13  1  0  0  0  0
  3 14  1  0  0  0  0
  4 15  1  0  0  0  0
  4 16  1  0  0  0  0
  5 17  1  0  0  0  0
  5 18  1  0  0  0  0
  6 19  1  0  0  0  0
  6 20  1  0  0  0  0
  7 21  1  0  0  0  0
  7 22  1  0  0  0  0
M  END
