40
1.1
N           -6.88481  -0.05583   1.88954
C           -7.29761  -1.33088   1.24212
C           -6.68964  -1.47309  -0.15035
C           -5.20534  -1.36877  -0.13499
C           -4.34882  -2.39683   0.09977
C           -2.98184  -2.01618   0.07767
C           -2.78682  -0.68759  -0.17366
C           -1.50703  -0.02918  -0.25026
C           -1.31070   1.29966  -0.51373
C            0.04922   1.68720  -0.52731
C            0.92158   0.65987  -0.27281
C            2.35789   0.75667  -0.21756
C            3.10202   1.89138  -0.41748
C            4.49634   1.69006  -0.29665
C            4.84778   0.40041  -0.00230
C            6.19468  -0.08101   0.17992
C            6.54551  -1.37067   0.46878
C            7.94744  -1.56598   0.59719
C            8.66517  -0.43380   0.40783
S            7.62978   0.90333   0.06514
S            3.41741  -0.58233   0.12279
S            0.02875  -0.81272  -0.01731
S           -4.32203   0.10706  -0.38731
Cl          -7.03724   2.04925  -0.80821
H           -7.06035   0.73658   1.24518
H           -5.87191  -0.05636   2.08369
H           -7.38162   0.12499   2.77742
H           -8.39235  -1.38135   1.18719
H           -6.99053  -2.17398   1.87237
H           -7.08679  -0.69089  -0.80726
H           -6.98378  -2.42499  -0.60907
H           -4.68216  -3.40623   0.28967
H           -2.16700  -2.70406   0.24397
H           -2.12698   1.98275  -0.69249
H            0.37091   2.69934  -0.71777
H            2.66358   2.85084  -0.64488
H            5.22515   2.47644  -0.42140
H            5.81869  -2.15983   0.58706
H            8.39237  -2.52426   0.82407
H            9.73565  -0.35840   0.46022
