 xtb: 6.5.1 (fef0646)
          01242317123D

 18 17  0     0  0            999 V2000
   -1.4419    1.1907   -0.1684 N   0  0  0  0  0  0  0  0  0  0  0  0
   -1.6928   -0.2166    0.2511 C   0  0  0  0  0  0  0  0  0  0  0  0
   -0.6901   -1.2074   -0.3469 C   0  0  0  0  0  0  0  0  0  0  0  0
    0.7032   -1.2100    0.3137 C   0  0  0  0  0  0  0  0  0  0  0  0
    1.6919   -0.1648   -0.2102 C   0  0  0  0  0  0  0  0  0  0  0  0
    1.3712    1.1550    0.1861 O   0  0  0  0  0  0  0  0  0  0  0  0
   -0.4397    1.3736   -0.0140 H   0  0  0  0  0  0  0  0  0  0  0  0
   -1.9961    1.8640    0.3698 H   0  0  0  0  0  0  0  0  0  0  0  0
   -1.6375    1.3211   -1.1655 H   0  0  0  0  0  0  0  0  0  0  0  0
   -2.7185   -0.4846   -0.0326 H   0  0  0  0  0  0  0  0  0  0  0  0
   -1.6614   -0.2831    1.3450 H   0  0  0  0  0  0  0  0  0  0  0  0
   -0.5851   -1.0175   -1.4200 H   0  0  0  0  0  0  0  0  0  0  0  0
   -1.1172   -2.2168   -0.2767 H   0  0  0  0  0  0  0  0  0  0  0  0
    1.1533   -2.2039    0.1896 H   0  0  0  0  0  0  0  0  0  0  0  0
    0.5935   -1.0746    1.3948 H   0  0  0  0  0  0  0  0  0  0  0  0
    1.7324   -0.1914   -1.3067 H   0  0  0  0  0  0  0  0  0  0  0  0
    2.7022   -0.3897    0.1586 H   0  0  0  0  0  0  0  0  0  0  0  0
    2.1004    1.7755    0.0522 H   0  0  0  0  0  0  0  0  0  0  0  0
  1  2  1  0  0  0  0
  2  3  1  0  0  0  0
  3  4  1  0  0  0  0
  4  5  1  0  0  0  0
  5  6  1  0  0  0  0
  1  7  1  0  0  0  0
  1  8  1  0  0  0  0
  1  9  1  0  0  0  0
  2 10  1  0  0  0  0
  2 11  1  0  0  0  0
  3 12  1  0  0  0  0
  3 13  1  0  0  0  0
  4 14  1  0  0  0  0
  4 15  1  0  0  0  0
  5 16  1  0  0  0  0
  5 17  1  0  0  0  0
  6 18  1  0  0  0  0
M  CHG  1   1   1
M  END
