 xtb: 6.5.1 (fef0646)
          01242316573D

 16 15  0     0  0            999 V2000
    0.9528   -2.1070   -0.2722 N   0  0  0  0  0  0  0  0  0  0  0  0
    1.4681   -0.9669    0.5413 C   0  0  0  0  0  0  0  0  0  0  0  0
    0.8586    0.3302    0.1534 C   0  0  0  0  0  0  0  0  0  0  0  0
   -0.4706    0.5787    0.0707 C   0  0  0  0  0  0  0  0  0  0  0  0
   -0.7798    1.9128   -0.3260 C   0  0  0  0  0  0  0  0  0  0  0  0
    0.3166    2.6710   -0.5423 C   0  0  0  0  0  0  0  0  0  0  0  0
    1.7603    1.7634   -0.2638 S   0  0  0  0  0  0  0  0  0  0  0  0
   -2.5421   -2.1990    0.3924 Cl  0  0  0  0  0  0  0  0  0  0  0  0
    1.1177   -1.9409   -1.2731 H   0  0  0  0  0  0  0  0  0  0  0  0
   -0.0673   -2.2103   -0.1393 H   0  0  0  0  0  0  0  0  0  0  0  0
    1.3975   -2.9993   -0.0165 H   0  0  0  0  0  0  0  0  0  0  0  0
    2.5566   -0.8970    0.4371 H   0  0  0  0  0  0  0  0  0  0  0  0
    1.2795   -1.1504    1.6054 H   0  0  0  0  0  0  0  0  0  0  0  0
   -1.2203   -0.1702    0.2737 H   0  0  0  0  0  0  0  0  0  0  0  0
   -1.7904    2.2756   -0.4419 H   0  0  0  0  0  0  0  0  0  0  0  0
    0.3112    3.7004   -0.8474 H   0  0  0  0  0  0  0  0  0  0  0  0
  1  2  1  0  0  0  0
  2  3  1  0  0  0  0
  3  4  2  0  0  0  0
  4  5  4  0  0  0  0
  5  6  2  0  0  0  0
  3  7  1  0  0  0  0
  6  7  1  0  0  0  0
  1  9  1  0  0  0  0
  1 10  1  0  0  0  0
  1 11  1  0  0  0  0
  2 12  1  0  0  0  0
  2 13  1  0  0  0  0
  4 14  1  0  0  0  0
  5 15  1  0  0  0  0
  6 16  1  0  0  0  0
M  END
