40

N         13.56849       -3.48330        0.91928
C         14.61828       -2.55300        1.41403
C         14.08320       -1.75826        2.60349
C         13.67257       -2.70181        3.76397
C         13.12231       -1.91451        4.98804
N         11.92440       -1.07041        4.79231
C         11.62053        0.46884        4.96039
C         10.02841        0.54151        5.14098
C          9.42009        1.50236        4.13931
C         10.09322        2.66590        4.10410
C         11.18558        2.52171        3.10994
C         11.95713        1.53209        3.72348
C         10.69866       -1.76783        4.87002
C          9.61034       -0.89744        4.96825
C          8.33695       -1.42181        4.84199
C          8.17038       -2.80454        4.67893
C          9.23718       -3.69768        4.65537
C         10.51178       -3.16933        4.75446
Cl         1.07407        0.06949        0.02642
H         13.90080       -4.03776        0.11739
H         12.72542       -2.98466        0.60524
H         13.28206       -4.14666        1.65111
H         14.88037       -1.89858        0.57772
H         15.47915       -3.16956        1.69059
H         13.22715       -1.15000        2.27799
H         14.85379       -1.06066        2.95241
H         14.54709       -3.27926        4.07023
H         12.94352       -3.41601        3.35112
H         13.97507       -1.28539        5.30828
H         12.96297       -2.59035        5.82339
H         12.18539        0.80254        5.85171
H          9.76824        0.94505        6.12271
H          9.22648        1.05285        3.14947
H         10.52185        3.21404        4.95737
H         10.50855        3.32722        2.64035
H         12.93911        1.35414        3.31780
H          7.43991       -0.81180        4.81689
H          7.16863       -3.18937        4.54547
H          9.06475       -4.75999        4.48743
H         11.32476       -3.88992        4.67472
