36
2.135
N           -5.39394   0.21765  -1.22141
C           -5.72143   0.21165   0.23247
C           -4.87652   1.20656   1.02477
C           -3.40653   0.91813   0.94998
C           -2.86626  -0.16533   1.62576
C           -1.52072  -0.44865   1.54370
C           -0.66517   0.34214   0.77685
C            0.75065   0.00625   0.70350
C            1.63992   0.57530  -0.12219
C            3.05441   0.23792  -0.20220
C            3.64370  -0.72201   0.62023
C            4.98779  -1.02559   0.52394
F            5.53851  -1.96991   1.33620
C            5.76680  -0.36176  -0.40760
C            5.20628   0.59231  -1.23118
C            3.86518   0.89070  -1.13164
C           -1.21486   1.43283   0.10254
C           -2.56177   1.71062   0.18652
Cl          -2.18070  -1.07986  -1.99780
H           -6.00313  -0.41741  -1.75493
H           -4.41955  -0.08035  -1.38151
H           -5.49743   1.16413  -1.61782
H           -5.57382  -0.79823   0.63218
H           -6.78791   0.42992   0.36670
H           -5.18285   1.21818   2.07723
H           -5.06371   2.22003   0.65523
H           -3.51383  -0.78841   2.21909
H           -1.11725  -1.29592   2.07153
H            1.08476  -0.77314   1.36412
H            1.29869   1.33702  -0.79960
H            3.06118  -1.24806   1.35232
H            6.81251  -0.60473  -0.47529
H            5.81955   1.10474  -1.95428
H            3.42987   1.63542  -1.77608
H           -0.58108   2.07105  -0.48749
H           -2.97098   2.55332  -0.34466
