36
0.494
N           -6.20061   1.14999   0.82368
C           -4.71762   1.01786   0.90350
C           -4.10385   0.58296  -0.42241
C           -2.61553   0.40856  -0.34655
C           -1.76326   1.47646  -0.58503
C           -0.39695   1.32751  -0.48503
C            0.16598   0.09958  -0.13641
C            1.60430  -0.10087  -0.01813
C            2.54378   0.79867  -0.34185
C            3.98113   0.59549  -0.22212
C            4.52908  -0.53999   0.37412
C            5.89588  -0.71108   0.47667
F            6.40598  -1.83053   1.06087
C            6.73976   0.26623  -0.02134
C            6.22078   1.39933  -0.61257
C            4.85690   1.56500  -0.71244
C           -0.69877  -0.96612   0.11406
C           -2.06380  -0.81206   0.01267
Cl          -7.38959  -1.98264  -0.22877
H           -6.62300   0.25448   0.53634
H           -6.46947   1.85483   0.12534
H           -6.61529   1.42125   1.72824
H           -4.45217   0.29556   1.68429
H           -4.27461   1.96815   1.22295
H           -4.34739   1.31258  -1.20182
H           -4.56378  -0.35430  -0.75253
H           -2.18376   2.43237  -0.84813
H            0.23980   2.17446  -0.66889
H            1.91669  -1.06190   0.34860
H            2.23337   1.74898  -0.73690
H            3.89486  -1.30666   0.77674
H            7.80273   0.12421   0.06303
H            6.88462   2.15623  -0.99728
H            4.45419   2.44984  -1.17534
H           -0.28540  -1.92149   0.39019
H           -2.71777  -1.64356   0.21492
