36
 xtb: 6.5.1 (fef0646)
N           -6.21457403721308        1.10498466611174        0.81180986221537
C           -4.72920658377166        1.00138691334408        0.90071319451416
C           -4.10247689311812        0.58267038102752       -0.42473984027400
C           -2.61430042873842        0.41124298357218       -0.34282646509878
C           -1.76311564879552        1.48377143858037       -0.56440461047370
C           -0.39675880770916        1.33515840033153       -0.46512461701439
C            0.16782991182974        0.10262335374183       -0.13512737613971
C            1.60667342470418       -0.10002819087031       -0.02666395451944
C            2.54428256763047        0.81660171333209       -0.30822347911365
C            3.98197613456815        0.60510133651851       -0.20530057081445
C            4.52815154455504       -0.52205196623997        0.40817938303367
C            5.89518899907968       -0.70921114233600        0.48210622178125
F            6.40448495393260       -1.82153711946079        1.08095671574694
C            6.74015916755039        0.24687767761886       -0.05561038586597
C            6.22256767666030        1.37564602249840       -0.65639921954299
C            4.85861480144160        1.55550007341498       -0.73155504686646
C           -0.69596423381207       -0.96738676529723        0.10038806808221
C           -2.06115941348530       -0.81331725511118        0.00084299515001
Cl          -7.38000635947837       -1.95022744164342       -0.23021719144640
H           -6.62239892872885        0.23964798349968        0.53037397811379
H           -6.47549318171484        1.84266095373677        0.12303353722150
H           -6.62186246127274        1.40561283907441        1.72475179633954
H           -4.45325224453569        0.29068957415675        1.68264633760437
H           -4.28270889506922        1.96487246578126        1.22430699150520
H           -4.34642027532927        1.31438762410682       -1.20089846760430
H           -4.56187143727409       -0.35392535320761       -0.75662210663155
H           -2.18397621117674        2.43539412830412       -0.83844995231007
H            0.23947698564070        2.17758238809844       -0.66020878461071
H            1.91840599188006       -1.06734152513102        0.33045203478305
H            2.23333026966893        1.75989612455874       -0.71316567936354
H            3.89396358287128       -1.29499726814009        0.79802112688498
H            7.80287480326403        0.11487817797391        0.04654481854615
H            6.88547136380099        2.14477770199102       -1.01840876946748
H            4.45488734181260        2.44535141549720       -1.18433428542877
H           -0.28432786318036       -1.92288489315034        0.38229805958704
H           -2.71673299676850       -1.64498982014089        0.20800596244650
