36
 xtb: 6.5.1 (fef0646)
N           -5.36546137648314        0.19929542591095       -1.23324526586612
C           -5.70721065217828        0.20063918858733        0.21856108460820
C           -4.87158812983678        1.20123221037824        1.01375732315497
C           -3.40052060772745        0.91787888048210        0.94546212315753
C           -2.85742196373274       -0.15363397721651        1.63801284056209
C           -1.51061983325118       -0.43284363334670        1.56253888191266
C           -0.65784079014959        0.34901071520061        0.78351054057496
C            0.76078220111089        0.02168539889269        0.72085688579435
C            1.63727032375342        0.54898743462989       -0.14713067315363
C            3.05607517500718        0.22591668259316       -0.21323586096090
C            3.64181266117283       -0.74546172242787        0.59837234100798
C            4.99161314047116       -1.02964517095065        0.52126550357579
F            5.53896769977036       -1.98721627494485        1.32157851630325
C            5.77863370640169       -0.33982939334098       -0.38504570970276
C            5.22031542955728        0.62093325752233       -1.20235137279037
C            3.87427970026163        0.90275335728735       -1.11924446561786
C           -1.21038943123457        1.42705965499620        0.09132121492763
C           -2.55822143031640        1.70189577185660        0.17060754524026
Cl          -2.26963834236795       -1.06318744967470       -1.97929440470716
H           -5.99511927514697       -0.42191941363762       -1.75887153542581
H           -4.41169849833411       -0.08711788748501       -1.38294537906050
H           -5.48756695672187        1.15893845317035       -1.62206758751710
H           -5.56976357528603       -0.80076297703270        0.62982624181304
H           -6.78427899765213        0.42610548392857        0.35991869453073
H           -5.18291389615852        1.21676499223395        2.07359111437216
H           -5.06298974566369        2.21804048078494        0.65113751961465
H           -3.51089970408764       -0.78295148032069        2.22521819347048
H           -1.11345009589844       -1.28832556900487        2.08115567315424
H            1.09203611114703       -0.75333091297621        1.38503380036635
H            1.29344429805029        1.31527329681095       -0.82051025953604
H            3.05822644363026       -1.26329107100869        1.33799779673661
H            6.81714468360369       -0.59430334651617       -0.46476367705301
H            5.82530235403932        1.11848565078799       -1.94062884358469
H            3.43326131537686        1.64112087143002       -1.77042884861316
H           -0.57981436973526        2.06786376149583       -0.49246960271787
H           -2.97067065981266        2.54819317928086       -0.35282356852277
