 xtb: 6.5.1 (fef0646)
          01242317003D

 36 36  0     0  0            999 V2000
   -6.2006    1.1500    0.8237 N   0  0  0  0  0  0  0  0  0  0  0  0
   -4.7176    1.0179    0.9035 C   0  0  0  0  0  0  0  0  0  0  0  0
   -4.1038    0.5830   -0.4224 C   0  0  0  0  0  0  0  0  0  0  0  0
   -2.6155    0.4086   -0.3465 C   0  0  0  0  0  0  0  0  0  0  0  0
   -1.7633    1.4765   -0.5850 C   0  0  0  0  0  0  0  0  0  0  0  0
   -0.3969    1.3275   -0.4850 C   0  0  0  0  0  0  0  0  0  0  0  0
    0.1660    0.0996   -0.1364 C   0  0  0  0  0  0  0  0  0  0  0  0
    1.6043   -0.1009   -0.0181 C   0  0  0  0  0  0  0  0  0  0  0  0
    2.5438    0.7987   -0.3419 C   0  0  0  0  0  0  0  0  0  0  0  0
    3.9811    0.5955   -0.2221 C   0  0  0  0  0  0  0  0  0  0  0  0
    4.5291   -0.5400    0.3741 C   0  0  0  0  0  0  0  0  0  0  0  0
    5.8959   -0.7111    0.4767 C   0  0  0  0  0  0  0  0  0  0  0  0
    6.4060   -1.8306    1.0609 F   0  0  0  0  0  0  0  0  0  0  0  0
    6.7398    0.2662   -0.0214 C   0  0  0  0  0  0  0  0  0  0  0  0
    6.2208    1.3993   -0.6126 C   0  0  0  0  0  0  0  0  0  0  0  0
    4.8569    1.5650   -0.7125 C   0  0  0  0  0  0  0  0  0  0  0  0
   -0.6988   -0.9661    0.1141 C   0  0  0  0  0  0  0  0  0  0  0  0
   -2.0638   -0.8120    0.0127 C   0  0  0  0  0  0  0  0  0  0  0  0
   -7.3896   -1.9826   -0.2287 Cl  0  0  0  0  0  0  0  0  0  0  0  0
   -6.6230    0.2545    0.5364 H   0  0  0  0  0  0  0  0  0  0  0  0
   -6.4695    1.8549    0.1254 H   0  0  0  0  0  0  0  0  0  0  0  0
   -6.6153    1.4213    1.7283 H   0  0  0  0  0  0  0  0  0  0  0  0
   -4.4522    0.2956    1.6843 H   0  0  0  0  0  0  0  0  0  0  0  0
   -4.2746    1.9682    1.2230 H   0  0  0  0  0  0  0  0  0  0  0  0
   -4.3474    1.3126   -1.2018 H   0  0  0  0  0  0  0  0  0  0  0  0
   -4.5638   -0.3543   -0.7525 H   0  0  0  0  0  0  0  0  0  0  0  0
   -2.1838    2.4324   -0.8481 H   0  0  0  0  0  0  0  0  0  0  0  0
    0.2398    2.1745   -0.6689 H   0  0  0  0  0  0  0  0  0  0  0  0
    1.9167   -1.0619    0.3486 H   0  0  0  0  0  0  0  0  0  0  0  0
    2.2334    1.7490   -0.7369 H   0  0  0  0  0  0  0  0  0  0  0  0
    3.8949   -1.3067    0.7767 H   0  0  0  0  0  0  0  0  0  0  0  0
    7.8027    0.1242    0.0630 H   0  0  0  0  0  0  0  0  0  0  0  0
    6.8846    2.1562   -0.9973 H   0  0  0  0  0  0  0  0  0  0  0  0
    4.4542    2.4498   -1.1754 H   0  0  0  0  0  0  0  0  0  0  0  0
   -0.2854   -1.9215    0.3902 H   0  0  0  0  0  0  0  0  0  0  0  0
   -2.7178   -1.6435    0.2149 H   0  0  0  0  0  0  0  0  0  0  0  0
  1  2  1  0  0  0  0
  2  3  1  0  0  0  0
  3  4  1  0  0  0  0
  4  5  4  0  0  0  0
  5  6  4  0  0  0  0
  6  7  4  0  0  0  0
  7  8  1  0  0  0  0
  8  9  2  0  0  0  0
  9 10  1  0  0  0  0
 10 11  4  0  0  0  0
 11 12  4  0  0  0  0
 12 13  1  0  0  0  0
 12 14  4  0  0  0  0
 14 15  4  0  0  0  0
 10 16  4  0  0  0  0
 15 16  4  0  0  0  0
  7 17  4  0  0  0  0
  4 18  4  0  0  0  0
 17 18  4  0  0  0  0
  1 20  1  0  0  0  0
  1 21  1  0  0  0  0
  1 22  1  0  0  0  0
  2 23  1  0  0  0  0
  2 24  1  0  0  0  0
  3 25  1  0  0  0  0
  3 26  1  0  0  0  0
  5 27  1  0  0  0  0
  6 28  1  0  0  0  0
  8 29  1  0  0  0  0
  9 30  1  0  0  0  0
 11 31  1  0  0  0  0
 14 32  1  0  0  0  0
 15 33  1  0  0  0  0
 16 34  1  0  0  0  0
 17 35  1  0  0  0  0
 18 36  1  0  0  0  0
M  END
