 xtb: 6.5.1 (fef0646)
          01242317123D

 17 16  0     0  0            999 V2000
   -4.2822   -1.2083   -0.2064 N   0  0  0  0  0  0  0  0  0  0  0  0
   -4.0245    0.1535    0.3521 C   0  0  0  0  0  0  0  0  0  0  0  0
   -2.8081    0.8456   -0.2618 C   0  0  0  0  0  0  0  0  0  0  0  0
   -1.4713    0.1831    0.0994 C   0  0  0  0  0  0  0  0  0  0  0  0
   -0.2710    0.9141   -0.4713 C   0  0  0  0  0  0  0  0  0  0  0  0
    1.5297   -0.0741    0.0607 I   0  0  0  0  0  0  0  0  0  0  0  0
   -4.3954   -1.1665   -1.2238 H   0  0  0  0  0  0  0  0  0  0  0  0
   -5.1356   -1.6147    0.1899 H   0  0  0  0  0  0  0  0  0  0  0  0
   -3.5094   -1.8487    0.0010 H   0  0  0  0  0  0  0  0  0  0  0  0
   -3.9000    0.0801    1.4386 H   0  0  0  0  0  0  0  0  0  0  0  0
   -4.9206    0.7675    0.1965 H   0  0  0  0  0  0  0  0  0  0  0  0
   -2.7797    1.8955    0.0536 H   0  0  0  0  0  0  0  0  0  0  0  0
   -2.9173    0.8740   -1.3511 H   0  0  0  0  0  0  0  0  0  0  0  0
   -1.4639   -0.8562   -0.2537 H   0  0  0  0  0  0  0  0  0  0  0  0
   -1.3773    0.1190    1.1923 H   0  0  0  0  0  0  0  0  0  0  0  0
   -0.2048    1.9370   -0.0973 H   0  0  0  0  0  0  0  0  0  0  0  0
   -0.3076    0.9606   -1.5609 H   0  0  0  0  0  0  0  0  0  0  0  0
  1  2  1  0  0  0  0
  2  3  1  0  0  0  0
  3  4  1  0  0  0  0
  4  5  1  0  0  0  0
  5  6  1  0  0  0  0
  1  7  1  0  0  0  0
  1  8  1  0  0  0  0
  1  9  1  0  0  0  0
  2 10  1  0  0  0  0
  2 11  1  0  0  0  0
  3 12  1  0  0  0  0
  3 13  1  0  0  0  0
  4 14  1  0  0  0  0
  4 15  1  0  0  0  0
  5 16  1  0  0  0  0
  5 17  1  0  0  0  0
M  CHG  1   1   1
M  END
