26
0.122
N           -3.47603   0.10534  -1.53933
C           -3.26207   1.55896  -1.30104
C           -2.53945   1.81790   0.01842
C           -1.26828   1.05339   0.13174
C           -1.13960  -0.16920   0.70951
C            0.18217  -0.68799   0.66306
C            1.07481   0.13997   0.04451
C            2.48085  -0.13407  -0.14564
C            3.37466   0.69431  -0.76353
C            4.69713   0.17356  -0.81221
C            4.81330  -1.04520  -0.23514
S            3.29467  -1.58289   0.38337
S            0.26239   1.58673  -0.48727
Cl          -4.40481  -1.37074   1.49078
H           -3.91404  -0.33994  -0.71116
H           -2.57571  -0.37484  -1.69205
H           -4.07463  -0.07923  -2.36122
H           -4.22539   2.08433  -1.31737
H           -2.68039   1.97730  -2.13153
H           -3.19152   1.54521   0.85664
H           -2.32817   2.88707   0.14137
H           -1.97444  -0.69846   1.14461
H            0.46251  -1.64622   1.07308
H            3.09427   1.65271  -1.17336
H            5.52439   0.70160  -1.26524
H            5.72060  -1.61634  -0.16209
