28
0.0
N           -2.63566   1.40456   1.09910
C           -1.63830   1.82468   0.06271
C           -2.28806   1.92255  -1.31217
C           -0.44226   0.90243   0.04323
C           -0.61583  -0.49092  -0.05424
C            0.45305  -1.33435  -0.09330
C            0.82728   1.41204   0.09128
C            1.96112   0.56899   0.05257
C            1.77150  -0.82985  -0.04053
C            2.90556  -1.67342  -0.08040
C            4.16239  -1.14895  -0.03117
C            4.35058   0.23721   0.06005
C            3.27925   1.07840   0.10116
Cl          -3.91729  -1.67448  -0.00850
H           -3.40630   2.08577   1.18119
H           -2.19193   1.30012   2.02101
H           -3.04856   0.49650   0.84195
H           -1.27473   2.82549   0.34714
H           -2.66161   0.94923  -1.62856
H           -1.57611   2.26160  -2.06543
H           -3.13172   2.61297  -1.30749
H           -1.61509  -0.88961  -0.09876
H            0.30463  -2.39839  -0.16666
H            0.97234   2.47606   0.15608
H            2.76137  -2.73831  -0.15115
H            5.02003  -1.80146  -0.06291
H            5.35113   0.63711   0.09740
H            3.42439   2.14326   0.17090
