28
1.968
N           -2.71263   1.50919  -0.76062
C           -2.14774   1.54300   0.62677
C           -1.97712   2.97510   1.11814
C           -0.85488   0.76629   0.69908
C           -0.70792  -0.28134   1.63029
C            0.44604  -1.00160   1.70391
C            0.18504   1.06176  -0.13786
C            1.39723   0.33648  -0.09163
C            1.53075  -0.71509   0.84518
C            2.74274  -1.44190   0.88998
C            3.76687  -1.13573   0.04467
C            3.63454  -0.09359  -0.88363
C            2.48007   0.62709  -0.95299
Cl          -2.37845  -1.85300  -1.67475
H           -2.12025   2.05287  -1.40603
H           -3.66303   1.90253  -0.79724
H           -2.74200   0.53873  -1.10851
H           -2.86994   1.03418   1.28579
H           -2.92001   3.52151   1.09023
H           -1.26696   3.51364   0.49169
H           -1.59922   3.00234   2.14077
H           -1.52769  -0.51020   2.29013
H            0.54463  -1.80054   2.41918
H            0.08551   1.86032  -0.85084
H            2.84480  -2.24243   1.60310
H            4.68654  -1.69668   0.08741
H            4.45370   0.13655  -1.54574
H            2.37860   1.42740  -1.66645
