28
1.846
N           -3.24844   0.77473  -0.11613
C           -2.09764   1.63946  -0.53019
C           -2.41629   2.41447  -1.80307
C           -0.83868   0.81624  -0.66572
C           -0.76758  -0.22832  -1.60679
C            0.35053  -0.99807  -1.72301
C            0.23860   1.05642   0.14395
C            1.41563   0.27932   0.05272
C            1.47324  -0.76764  -0.89698
C            2.64936  -1.54740  -0.98592
C            3.71187  -1.29572  -0.17059
C            3.65505  -0.25825   0.77045
C            2.53657   0.51213   0.88248
Cl          -1.88281  -1.09724   2.51290
H           -2.99055   0.21400   0.71379
H           -3.49400   0.11899  -0.86898
H           -4.08550   1.33037   0.10692
H           -1.92614   2.36631   0.28048
H           -2.61199   1.73367  -2.63053
H           -1.58491   3.05660  -2.09575
H           -3.30014   3.04043  -1.67815
H           -1.61713  -0.41699  -2.24051
H            0.39068  -1.79453  -2.44666
H            0.19356   1.84818   0.87084
H            2.69310  -2.34487  -1.70837
H            4.60361  -1.89681  -0.24689
H            4.50378  -0.07138   1.40851
H            2.49301   1.30852   1.60614
