42

N          2.92950       -2.05920       -2.17261
C          4.37932       -1.93998       -2.20711
C          4.88557       -1.01728       -1.10254
C          4.55094       -1.45812        0.32855
C          5.07159       -2.84426        0.72261
C          6.59739       -2.92102        0.70343
C          7.10472       -4.31335        1.07034
C          8.63276       -4.33707        1.06245
C          9.16791       -5.72390        1.40162
C         10.69546       -5.73600        1.40063
C         11.22261       -7.12374        1.75767
C         12.74911       -7.15166        1.77814
C         13.26446       -8.53358        2.14128
Cl         0.61650       -0.45799       -1.91808
H          2.49752       -2.58504       -2.93765
H          2.40043       -1.14354       -2.22990
H          2.51181       -2.41206       -1.30012
H          4.64716       -1.54504       -3.18950
H          4.79086       -2.95056       -2.11941
H          4.47412       -0.01209       -1.25905
H          5.97086       -0.91124       -1.20922
H          3.46525       -1.43579        0.47550
H          4.96368       -0.71489        1.02251
H          4.64458       -3.61215        0.06843
H          4.71603       -3.07180        1.73576
H          7.00588       -2.18414        1.40591
H          6.97754       -2.66579       -0.29122
H          6.71959       -5.04751        0.35202
H          6.73278       -4.60070        2.06090
H          9.01438       -3.60771        1.78763
H          9.00178       -4.03293        0.07497
H          8.79288       -6.45248        0.67253
H          8.79619       -6.03052        2.38708
H         11.07063       -5.00162        2.12268
H         11.06675       -5.44055        0.41218
H         10.85059       -7.85544        1.02975
H         10.83692       -7.42209        2.73996
H         13.12560       -6.42142        2.50425
H         13.13973       -6.86470        0.79526
H         12.91418       -8.83366        3.13395
H         14.35895       -8.53981        2.14920
H         12.92405       -9.28035        1.41680
