  42

 N          2.8720852024        2.9268359112        0.6837748506
 C          4.3322156124        2.8352839355        0.8963595663
 C          4.6816150091        2.9239686518        2.3761107620
 C          4.2644583739        1.6959761590        3.1873251340
 C          4.9653761349        0.3942266387        2.7885437708
 C          6.4944292352        0.4326433086        2.8227913870
 C          7.0588441433        0.7111733083        4.2141607604
 C          8.5848856397        0.6552669493        4.2329382084
 C          9.1481359904        0.9062484680        5.6298387484
 C         10.6747325468        0.8827732795        5.6491057169
 C         11.2347202912        1.1191152482        7.0497695888
 C         12.7616699201        1.1203633933        7.0673793619
 C         13.3137495069        1.3526294399        8.4689209292
 Cl         0.9781751290        0.7235365577        1.6591521243
 H          2.6418895452        2.9353733369       -0.3125846417
 H          2.4978363840        3.7692285477        1.1274525561
 H          2.3524024860        2.1147838951        1.0965106966
 H          4.8118887220        3.6576280973        0.3639635735
 H          4.6876310241        1.8927386921        0.4846752872
 H          4.1969298207        3.8004937961        2.8084608793
 H          5.7568344703        3.0677725099        2.4721019793
 H          3.1900166169        1.5294869104        3.0896215567
 H          4.4612210845        1.8950688176        4.2418047891
 H          4.6389809190        0.0979252102        1.7899456973
 H          4.6188272179       -0.3892541052        3.4679682842
 H          6.8682881025        1.1816587367        2.1238981033
 H          6.8653517415       -0.5382821620        2.4844054790
 H          6.6618962476       -0.0261652559        4.9166303169
 H          6.7389611880        1.6968179172        4.5550792286
 H          8.9829393861        1.4042515386        3.5445725691
 H          8.9171493146       -0.3246659896        3.8816230385
 H          8.7670103019        0.1442115689        6.3141367687
 H          8.7990845831        1.8762956171        5.9914642157
 H         11.0558519817        1.6527729604        4.9742589831
 H         11.0261228642       -0.0832699317        5.2785792564
 H         10.8673962302        0.3394831613        7.7215587419
 H         10.8701265103        2.0773965416        7.4273127662
 H         13.1281221919        1.9026816574        6.3989842845
 H         13.1267542677        0.1634273456        6.6874392217
 H         12.9727843814        2.3091901452        8.8584551163
 H         14.4008172018        1.3536141059        8.4568905772
 H         12.9779424794        0.5693750865        9.1448597662
