  28

 N          1.2257300000        0.0075700000        0.0054900000
 C          2.6788800000       -0.0108200000        0.0070100000
 C          3.1832700000       -0.7565100000        1.2428900000
 C          4.6892300000       -0.7860300000        1.2789100000
 C          5.4153500000        0.4139000000        1.3251800000
 C          6.8136700000        0.4180500000        1.2430000000
 C          7.5298800000        1.6234700000        1.2081800000
 C          8.9191900000        1.6192800000        1.0914100000
 C          9.6059800000        0.4106800000        1.0258400000
 C          8.9088100000       -0.7964700000        1.0696300000
 C          7.5064900000       -0.8102500000        1.1692900000
 C          6.7793700000       -2.0102100000        1.1854200000
 C          5.3829400000       -1.9992500000        1.2321200000
 Cl        -1.3155000000       -0.2853600000       -1.0904900000
 H          0.7698300000        0.4849500000       -0.8036200000
 H          0.7430700000        0.4274500000        0.8070200000
 H          0.7401000000       -0.9018200000       -0.1279500000
 H          3.0014800000        1.0348700000       -0.0032100000
 H          3.0074200000       -0.4882500000       -0.9217400000
 H          2.7838600000       -1.7791500000        1.2416400000
 H          2.8158900000       -0.2801500000        2.1607500000
 H          4.8901900000        1.3646900000        1.4014400000
 H          7.0106200000        2.5781700000        1.2550200000
 H          9.4625700000        2.5591500000        1.0476900000
 H         10.6893700000        0.4070900000        0.9310600000
 H          9.4640800000       -1.7291300000        1.0112600000
 H          7.2971300000       -2.9670300000        1.1402700000
 H          4.8502400000       -2.9481400000        1.2184100000
