 xtb: 6.5.1 (fef0646)
          01242310033D

 17 16  0     0  0            999 V2000
   -1.9394   -0.5134    0.1583 N   0  0  0  0  0  0  0  0  0  0  0  0
   -0.8777    0.4722   -0.2028 C   0  0  0  0  0  0  0  0  0  0  0  0
    0.5260    0.0888    0.3005 C   0  0  0  0  0  0  0  0  0  0  0  0
    1.0432   -1.1885   -0.3688 C   0  0  0  0  0  0  0  0  0  0  0  0
    1.5154    1.2474    0.1188 C   0  0  0  0  0  0  0  0  0  0  0  0
   -2.8705   -0.1914   -0.1454 H   0  0  0  0  0  0  0  0  0  0  0  0
   -1.9841   -0.6585    1.1772 H   0  0  0  0  0  0  0  0  0  0  0  0
   -1.7796   -1.4301   -0.2824 H   0  0  0  0  0  0  0  0  0  0  0  0
   -1.1561    1.4518    0.2043 H   0  0  0  0  0  0  0  0  0  0  0  0
   -0.8530    0.6004   -1.2906 H   0  0  0  0  0  0  0  0  0  0  0  0
    0.4364   -0.1109    1.3820 H   0  0  0  0  0  0  0  0  0  0  0  0
    2.0378   -1.4545   -0.0058 H   0  0  0  0  0  0  0  0  0  0  0  0
    1.1144   -1.0605   -1.4495 H   0  0  0  0  0  0  0  0  0  0  0  0
    0.3904   -2.0416   -0.1798 H   0  0  0  0  0  0  0  0  0  0  0  0
    1.1784    2.1506    0.6309 H   0  0  0  0  0  0  0  0  0  0  0  0
    1.6359    1.4946   -0.9367 H   0  0  0  0  0  0  0  0  0  0  0  0
    2.5030    0.9972    0.5107 H   0  0  0  0  0  0  0  0  0  0  0  0
  1  2  1  0  0  0  0
  2  3  1  0  0  0  0
  3  4  1  0  0  0  0
  3  5  1  0  0  0  0
  1  6  1  0  0  0  0
  1  7  1  0  0  0  0
  1  8  1  0  0  0  0
  2  9  1  0  0  0  0
  2 10  1  0  0  0  0
  3 11  1  0  0  0  0
  4 12  1  0  0  0  0
  4 13  1  0  0  0  0
  4 14  1  0  0  0  0
  5 15  1  0  0  0  0
  5 16  1  0  0  0  0
  5 17  1  0  0  0  0
M  CHG  1   1   1
M  END
