25
 xtb: 6.5.1 (fef0646)
N           -4.56316459627341       -0.09750126370762        0.59235173313625
C           -3.07520371558969       -0.11981620087980        0.74509988098929
C           -2.34209613061344        0.05157056734349       -0.58474579697174
C           -0.85043279197756        0.09730338663005       -0.42433974163489
C           -0.18640044056586        1.31237983869462       -0.35257736408253
C            1.17558655819622        1.35978378008957       -0.17551630463449
C            1.92797862763248        0.19166258853377       -0.05344175998046
O            3.30117520065008        0.34157272429997        0.12711088782046
C            4.03480466291826       -0.85360571429732        0.24447915821330
C            1.25348388812133       -1.02897623336421       -0.11805636544615
C           -0.10930723824426       -1.06964791289266       -0.29939988567779
H           -4.90924618601532        0.80155592841310        0.22136464903061
H           -5.02943881350919       -0.27944400562920        1.49250507415616
H           -4.84272747710338       -0.84325405549928       -0.07342407640764
H           -2.74977101556282       -0.97474002445274        1.27471405105880
H           -2.79442419410145        0.76716220103139        1.38996731913711
H           -2.67963334238832        0.91551840783825       -1.13308475591925
H           -2.60483805252620       -0.82028453036956       -1.22362488498546
H           -0.76226210243171        2.21613778990640       -0.39598621496203
H            1.67866989848807        2.30085100464419       -0.07638868955854
H            3.92517225710353       -1.42390327262335       -0.69257504812630
H            3.70660662004674       -1.42102625876802        1.09662703331930
H            5.08908485382154       -0.57961778029398        0.35497728934323
H            1.81340903196544       -1.95080761239933       -0.06120533255043
H           -0.60181500956459       -2.02908213656022       -0.38236494145430
