28
 xtb: 6.5.1 (fef0646)
N           -3.58133275096595        0.29330960943054        0.04644930412676
C           -3.25778912510803        1.69209703514532       -0.35105303872909
C           -2.15282086024960        1.75485579734603       -1.40382628137260
C           -0.82757288570538        1.24557255551217       -0.91362620445335
C           -0.37066273745983        0.00723594762807       -1.27698123860821
C            0.87528476202587       -0.48138226061827       -0.82062333961412
C            1.36394410707591       -1.75623964191027       -1.18813447980062
C            2.56857443358999       -2.19694315798220       -0.72799045185958
C            3.34327049852032       -1.39274274530210        0.11931666230288
C            2.90183588232260       -0.15925210193290        0.49414664747663
C            1.65741884268846        0.32994333711843        0.03500368774623
C            1.16282309480678        1.60040812975750        0.40595742138758
C           -0.04160115555904        2.03940955326357       -0.05520718999085
Cl          -0.67348518097360       -1.23055930752763        2.10190597534424
H           -2.66379570249685       -0.15306831413483        0.53105328690516
H           -3.76437064976647       -0.33457971412743       -0.69648740681613
H           -4.26771155871894        0.19713849472248        0.80236759668103
H           -2.95647791370485        2.25893342944608        0.54663897865686
H           -4.17457522633404        2.10518497330153       -0.69649663947046
H           -2.04006007564537        2.77875165992485       -1.73828160484018
H           -2.45821467063918        1.17295503962191       -2.27239675675730
H           -0.96214407018676       -0.61055388508279       -1.92540846671037
H            0.77334430386708       -2.37437200651403       -1.84183762214759
H            2.93406965154173       -3.17278557502291       -1.01757197187599
H            4.29713988775103       -1.75964459200756        0.47462869457861
H            3.50157851961694        0.45476698453731        1.14576333980921
H            1.75946592922904        2.21721770014289        1.06091869420166
H           -0.40526833691286        3.00749201153410        0.23681541045082
