 xtb: 6.5.1 (fef0646)
          01242316593D

 28 28  0     0  0            999 V2000
   -3.4780    0.2417    0.1294 N   0  0  0  0  0  0  0  0  0  0  0  0
   -3.2386    1.6448   -0.3134 C   0  0  0  0  0  0  0  0  0  0  0  0
   -2.1540    1.7413   -1.3839 C   0  0  0  0  0  0  0  0  0  0  0  0
   -0.8190    1.2446   -0.9128 C   0  0  0  0  0  0  0  0  0  0  0  0
   -0.3614    0.0084   -1.2808 C   0  0  0  0  0  0  0  0  0  0  0  0
    0.8844   -0.4803   -0.8259 C   0  0  0  0  0  0  0  0  0  0  0  0
    1.3714   -1.7556   -1.1939 C   0  0  0  0  0  0  0  0  0  0  0  0
    2.5744   -2.1989   -0.7321 C   0  0  0  0  0  0  0  0  0  0  0  0
    3.3491   -1.3962    0.1167 C   0  0  0  0  0  0  0  0  0  0  0  0
    2.9093   -0.1621    0.4917 C   0  0  0  0  0  0  0  0  0  0  0  0
    1.6660    0.3293    0.0318 C   0  0  0  0  0  0  0  0  0  0  0  0
    1.1720    1.5997    0.4045 C   0  0  0  0  0  0  0  0  0  0  0  0
   -0.0334    2.0382   -0.0544 C   0  0  0  0  0  0  0  0  0  0  0  0
   -0.8123   -1.1429    2.0141 Cl  0  0  0  0  0  0  0  0  0  0  0  0
   -2.6376   -0.1508    0.5813 H   0  0  0  0  0  0  0  0  0  0  0  0
   -3.7078   -0.3622   -0.6717 H   0  0  0  0  0  0  0  0  0  0  0  0
   -4.2537    0.1769    0.8082 H   0  0  0  0  0  0  0  0  0  0  0  0
   -2.9566    2.2555    0.5523 H   0  0  0  0  0  0  0  0  0  0  0  0
   -4.1764    2.0757   -0.6853 H   0  0  0  0  0  0  0  0  0  0  0  0
   -2.0467    2.7764   -1.7296 H   0  0  0  0  0  0  0  0  0  0  0  0
   -2.4594    1.1699   -2.2669 H   0  0  0  0  0  0  0  0  0  0  0  0
   -0.9597   -0.6099   -1.9265 H   0  0  0  0  0  0  0  0  0  0  0  0
    0.7756   -2.3734   -1.8443 H   0  0  0  0  0  0  0  0  0  0  0  0
    2.9355   -3.1733   -1.0191 H   0  0  0  0  0  0  0  0  0  0  0  0
    4.2987   -1.7610    0.4738 H   0  0  0  0  0  0  0  0  0  0  0  0
    3.5041    0.4536    1.1450 H   0  0  0  0  0  0  0  0  0  0  0  0
    1.7623    2.2167    1.0607 H   0  0  0  0  0  0  0  0  0  0  0  0
   -0.4033    3.0067    0.2380 H   0  0  0  0  0  0  0  0  0  0  0  0
  1  2  1  0  0  0  0
  2  3  1  0  0  0  0
  3  4  1  0  0  0  0
  4  5  2  0  0  0  0
  5  6  4  0  0  0  0
  6  7  4  0  0  0  0
  7  8  2  0  0  0  0
  8  9  4  0  0  0  0
  9 10  2  0  0  0  0
  6 11  4  0  0  0  0
 10 11  4  0  0  0  0
 11 12  4  0  0  0  0
  4 13  4  0  0  0  0
 12 13  2  0  0  0  0
  1 15  1  0  0  0  0
  1 16  1  0  0  0  0
  1 17  1  0  0  0  0
  2 18  1  0  0  0  0
  2 19  1  0  0  0  0
  3 20  1  0  0  0  0
  3 21  1  0  0  0  0
  5 22  1  0  0  0  0
  7 23  1  0  0  0  0
  8 24  1  0  0  0  0
  9 25  1  0  0  0  0
 10 26  1  0  0  0  0
 12 27  1  0  0  0  0
 13 28  1  0  0  0  0
M  END
