14
0.679
N           -0.08875   0.28647   0.62027
C            0.80147  -0.83165   0.19617
C            2.25142  -0.61290   0.63203
C            2.86801   0.53071   0.05763
C            3.37575   1.51291  -0.43753
Cl          -3.37660  -0.29756  -0.48597
H           -0.09238   0.38576   1.64459
H           -1.06719   0.14016   0.31207
H            0.23443   1.18046   0.22549
H            0.76027  -0.93754  -0.89417
H            0.41845  -1.77729   0.59981
H            2.85510  -1.49861   0.39252
H            2.28939  -0.52278   1.72460
H            3.82094   2.37659  -0.87316
