14
 xtb: 6.5.1 (fef0646)
N           -0.19700287878399        0.25280769860192        0.57010968082758
C            0.75060122448962       -0.83104357614737        0.16939160045965
C            2.19137851361787       -0.59663883341209        0.63562557664125
C            2.83472118356433        0.53041681065685        0.05728834876138
C            3.35809776311885        1.50506394268641       -0.43697170656166
Cl          -3.18630064125683       -0.27688867943655       -0.43216299106829
H           -0.12575706360288        0.37875581759746        1.63069157982693
H           -1.09947147750223        0.11950069816883        0.29528829290207
H            0.19466148163568        1.17464985109025        0.21158809566728
H            0.75307304587435       -0.93684873963389       -0.90226009801017
H            0.40749069089276       -1.78023657313335        0.58860124311315
H            2.83833891061404       -1.49611412801022        0.40252744846459
H            2.26432683307328       -0.51241035422714        1.72542602625421
H            3.81999972868502        2.37211044055682       -0.87303682819553
