  25

 N          1.2602552327       -0.1356945066       -0.6015612224
 C          2.6750937550       -0.3058809351       -0.2672186805
 C          2.9461691224       -1.5563695620        0.5765933789
 C          2.6058974392       -2.8480083838       -0.1710188480
 C          3.0006142604       -4.0617086519        0.6660617920
 C          2.2826793772       -4.0339333917        2.0118310607
 C          2.5996205791       -2.7412468784        2.7572548889
 C          2.2097421387       -1.5293845234        1.9153337183
 Cl        -0.5713013299        0.7541437692        1.5014861254
 H          1.1448703503        0.6344760251       -1.2514941240
 H          0.3309302256        0.2977826745        0.5657126298
 H          0.8927456330       -0.9759895816       -1.0350512795
 H          2.9791888571        0.5801669525        0.2960735166
 H          3.2946890968       -0.3603080220       -1.1749313919
 H          4.0240585766       -1.5607651265        0.7785686115
 H          3.1268203035       -2.8737950712       -1.1320431173
 H          1.5312136215       -2.8957012143       -0.3617408696
 H          4.0807514004       -4.0543300810        0.8299594084
 H          2.7508060748       -4.9787905327        0.1281477571
 H          2.5840179938       -4.8952466436        2.6112461956
 H          1.2048336299       -4.1002987325        1.8480960415
 H          3.6690396659       -2.7046034880        2.9795885287
 H          2.0602100501       -2.7183289103        3.7056109801
 H          2.4511215834       -0.6102530502        2.4507675804
 H          1.1341423626       -1.5403921345        1.7431873195
