41
1.267
N            6.93701  -0.47909   0.42762
C            5.51051  -0.83581   0.16732
C            4.62917   0.38959  -0.03849
C            3.16769   0.03648  -0.31909
C            2.28734   1.26698  -0.54278
C            0.83820   0.92742  -0.90285
C            0.05746   0.27108   0.23654
C           -1.38711  -0.05633  -0.14412
C           -2.18109  -0.68510   1.00179
C           -3.59266  -1.12432   0.60293
C           -4.50604   0.03192   0.19397
C           -5.92564  -0.42094  -0.15188
C           -6.82564   0.72906  -0.57865
H            7.32427   0.05729  -0.35610
H            7.51811  -1.31467   0.55800
H            7.01791   0.09855   1.27134
H            5.12356  -1.43405   0.99992
H            5.45025  -1.48566  -0.71303
H            5.02718   0.99090  -0.86254
H            4.68959   1.03701   0.84260
H            2.77360  -0.56098   0.50954
H            3.11142  -0.61735  -1.19638
H            2.73287   1.88112  -1.33442
H            2.30475   1.89714   0.35321
H            0.82529   0.26963  -1.77887
H            0.30914   1.83476  -1.21800
H            0.06729   0.92711   1.11404
H            0.56315  -0.64544   0.55796
H           -1.39345  -0.73065  -1.00769
H           -1.88644   0.85557  -0.48814
H           -2.23866   0.02267   1.83621
H           -1.62168  -1.54373   1.39202
H           -4.06016  -1.67130   1.43035
H           -3.53128  -1.84611  -0.21910
H           -4.07752   0.56064  -0.66400
H           -4.54280   0.77397   0.99924
H           -6.36094  -0.93952   0.71091
H           -5.88051  -1.17684  -0.94528
H           -6.91121   1.47630   0.21090
H           -7.83400   0.39054  -0.82172
H           -6.42786   1.23444  -1.45929
