 xtb: 6.5.1 (fef0646)
          02032321093D

 17 16  0     0  0            999 V2000
   -5.2008   -0.7691   -0.2839 N   0  0  0  0  0  0  0  0  0  0  0  0
   -3.8232   -0.9302    0.2739 C   0  0  0  0  0  0  0  0  0  0  0  0
   -2.7682   -0.1631   -0.5170 C   0  0  0  0  0  0  0  0  0  0  0  0
   -1.3521   -0.3094    0.0604 C   0  0  0  0  0  0  0  0  0  0  0  0
   -0.3045    0.4558   -0.7246 C   0  0  0  0  0  0  0  0  0  0  0  0
    1.6167    0.2070    0.1415 I   0  0  0  0  0  0  0  0  0  0  0  0
   -5.2391   -1.1055   -1.2498 H   0  0  0  0  0  0  0  0  0  0  0  0
   -5.4779    0.2163   -0.2804 H   0  0  0  0  0  0  0  0  0  0  0  0
   -5.8878   -1.2948    0.2642 H   0  0  0  0  0  0  0  0  0  0  0  0
   -3.5658   -1.9954    0.2990 H   0  0  0  0  0  0  0  0  0  0  0  0
   -3.8153   -0.5978    1.3183 H   0  0  0  0  0  0  0  0  0  0  0  0
   -3.0402    0.8970   -0.5550 H   0  0  0  0  0  0  0  0  0  0  0  0
   -2.7758   -0.5003   -1.5589 H   0  0  0  0  0  0  0  0  0  0  0  0
   -1.0797   -1.3731    0.0984 H   0  0  0  0  0  0  0  0  0  0  0  0
   -1.3464    0.0273    1.1063 H   0  0  0  0  0  0  0  0  0  0  0  0
   -0.5163    1.5260   -0.7438 H   0  0  0  0  0  0  0  0  0  0  0  0
   -0.2429    0.1112   -1.7581 H   0  0  0  0  0  0  0  0  0  0  0  0
  1  2  1  0  0  0  0
  2  3  1  0  0  0  0
  3  4  1  0  0  0  0
  4  5  1  0  0  0  0
  5  6  1  0  0  0  0
  1  7  1  0  0  0  0
  1  8  1  0  0  0  0
  1  9  1  0  0  0  0
  2 10  1  0  0  0  0
  2 11  1  0  0  0  0
  3 12  1  0  0  0  0
  3 13  1  0  0  0  0
  4 14  1  0  0  0  0
  4 15  1  0  0  0  0
  5 16  1  0  0  0  0
  5 17  1  0  0  0  0
M  CHG  1   1   1
M  END
