37
 xtb: 6.5.1 (fef0646)
N           -4.35097497946478        1.78443648635126       -1.23865019021984
C           -4.48496523720043        1.72199619848682        0.24238871092966
C           -3.46355884927147        0.74816203476669        0.81077374264662
O           -2.14374577952295        1.12865261948166        0.44376844058440
C           -1.15725777771490        0.21449286791434        0.76106444145380
C            0.16995033739716        0.53064435904066        0.36589668737723
C            0.46222067766875        1.74141767981830       -0.31186416731525
C            1.72859901318236        2.05117085028813       -0.69370591749535
C            1.22297596664198       -0.36916581823258        0.64727376436900
C            0.96329675301700       -1.58461599799925        1.32312897882444
C           -0.35370337969123       -1.86829240240738        1.70886684146070
C           -1.37719846926702       -0.99553820278486        1.43970403287915
C            2.04387351783361       -2.47007301955363        1.58905996299414
C            3.31173710896562       -2.16799945735965        1.20865924448319
C            3.60819008195680       -0.95153789481117        0.52781367156298
C            4.90320061681064       -0.61516373579157        0.12536919710837
C            5.15213554569749        0.57348078773607       -0.53197131123928
C            4.12695441525846        1.45624112403660       -0.80742556050390
C            2.81319423037317        1.16686684935460       -0.42765283544402
C            2.55185719943007       -0.05015911725620        0.24776949844493
Cl          -4.57901744312200       -1.06263876397926       -2.54306411661299
H           -3.37804530781921        2.21437497236743       -1.41078018679282
H           -5.00347193046089        2.56795280563652       -1.59483192500999
H           -4.45841469754308        0.97341052894293       -1.66716891487218
H           -5.50338533794877        1.43396598760196        0.52821376599761
H           -4.32665513429384        2.71607640461772        0.76182878956060
H           -3.65227666654760       -0.24053909280501        0.36560768871626
H           -3.51671564175920        0.65363067406336        1.89507331620307
H           -0.35228079954587        2.41653522068367       -0.51743254118770
H            1.92999870961134        2.97577199849523       -1.20993794162746
H           -0.55570394594147       -2.79073891371843        2.22600992749520
H           -2.37438257138327       -1.24789213334993        1.75450878932955
H            1.83745646174879       -3.39183456790790        2.10686211089123
H            4.11741497717735       -2.84913414264895        1.42244545293860
H            5.70970139982251       -1.29721355453709        0.33705965999869
H            6.15877954111354        0.81326350752387       -0.83555809742679
H            4.33125484117985        2.37910395483487       -1.32450325134822
