19
0.522
N            0.68227  -1.04761  -0.44051
C           -0.47046  -0.75628   0.46459
C           -1.09219   0.63093   0.15417
C           -2.49603   0.37295  -0.42699
C           -2.91397  -1.01907   0.08015
C           -1.60356  -1.80308   0.29583
Cl           3.05140   1.49992   0.00006
H            1.09069  -1.97132  -0.24465
H            1.42416  -0.33429  -0.33468
H            0.37553  -1.03703  -1.42184
H           -0.11099  -0.76965   1.50593
H           -0.45909   1.18615  -0.54579
H           -1.15581   1.24001   1.06325
H           -2.46495   0.38428  -1.52310
H           -3.21118   1.15001  -0.12953
H           -3.58340  -1.52807  -0.62445
H           -3.46655  -0.92990   1.02313
H           -1.38584  -2.43365  -0.57218
H           -1.66608  -2.47751   1.15765
