19
 xtb: 6.5.1 (fef0646)
N            0.42379618949864        1.33115255110722        1.09529467625256
C           -0.99788551391512        0.85430280899457        1.09680911517398
C           -1.63358539971681        0.98928184255040       -0.30553567066501
C           -1.44386828417979       -0.37391476140732       -1.00823734937303
C           -1.09094203380104       -1.40775568545888        0.09011296522472
C           -1.07989263500852       -0.65182347046076        1.43836790676786
Cl           2.20025452061910       -0.34352211789390       -0.96807944326305
H            0.40233607101831        2.37027769364167        0.89465346599920
H            0.94408094552767        0.84760200832228        0.48478310859303
H            0.77490208982005        1.26703438183976        2.08912266051184
H           -1.64552775660291        1.43209660076771        1.84622729159103
H           -1.19210658601621        1.82406767640421       -0.84010452203920
H           -2.72523062093198        1.21944701516257       -0.23011620278566
H           -0.60647845967116       -0.27531016832820       -1.73197860747394
H           -2.30535460600014       -0.66658120097889       -1.57327450701549
H           -0.07276510107337       -1.82028113960200       -0.08299459458521
H           -1.76338570969267       -2.23951694310735        0.09172245849586
H           -0.25785627936591       -0.93235772426102        2.09134871058142
H           -2.01265511546754       -0.88545803525887        2.00290124965030
