18

N          0.99736       -0.30050        0.10908
C          2.46399       -0.27656        0.11366
C          2.98710       -1.07199        1.29479
C          4.51747       -1.03642        1.33588
C          5.05030       -1.81897        2.51064
O          6.39810       -1.80313        2.57868
O          4.35604       -2.41081        3.32107
Cl         0.14482        2.08740       -1.26289
H          0.67304        0.42973       -0.59416
H          0.56618        0.08156        0.95611
H          0.54186       -1.16643       -0.17344
H          2.77323        0.77024        0.18104
H          2.79642       -0.69349       -0.84193
H          2.63837       -2.11035        1.23491
H          2.58526       -0.65890        2.22925
H          4.86281       -0.00064        1.42676
H          4.92377       -1.47351        0.41779
H          6.84253       -1.28592        1.87725
