45
 xtb: 6.5.1 (fef0646)
N           -7.81124196050485        1.97241901437754        0.02328615632460
C           -8.28481954613613        0.70109579321447       -0.60674036111005
C           -7.77580825746027       -0.55077090429283        0.11564302978630
C           -6.30167164139879       -0.75551226254895        0.04228757913876
C           -5.66981737815467       -1.96580447771415       -0.05102512203322
C           -4.26197377658530       -1.88665081076768       -0.05318437616546
C           -3.77253338890374       -0.60076414868709        0.03891389960918
C           -2.40390055185220       -0.22092766976003        0.05564955001549
C           -1.92437181564209        1.07814959263604        0.08609585650195
C           -0.53039017059530        1.19146064673977        0.07793883545636
C            0.16179721941418        2.50786635721802        0.09906941117820
C            0.11845898701204       -0.04759753864293        0.04431528067307
C            1.51118374347512       -0.30740137384901        0.02867959644569
C            2.07798388852994       -1.57575107693414        0.02228414704797
C            3.46896748620460       -1.58349670056168        0.00531689778315
C            4.05018829775887       -0.32335136501088       -0.00415472583672
C            5.45344733077516       -0.08080884964720       -0.02665348890988
C            6.11492668127860        1.13865981024283       -0.05261134360810
C            5.44684747019019        2.46835211573896       -0.06319502028128
C            7.52409427602095        0.99689751320372       -0.06908361744102
C            7.95612087580063       -0.29089875234096       -0.05551057105803
S            6.62907167657644       -1.37386773394245       -0.00665823126593
S            2.79091740794096        0.87537315027738        0.00977734813828
S           -1.06630221467860       -1.32421516135364        0.01804796862647
S           -5.11438587748442        0.50470793018951        0.18465638517195
H           -8.20776944820700        1.98775532208812        1.03788441826558
H           -8.17217117890063        2.81081233206218       -0.41424976815671
H           -6.81358669785339        2.01880322028321        0.13792338402107
H           -7.84875391899157        0.72586503674399       -1.64592250527258
H           -9.33876674202545        0.70926611548368       -0.72798064896110
H           -8.26446305343294       -1.42953940588122       -0.34272075646482
H           -8.09649334637247       -0.51843369741337        1.13825579675961
H           -6.20270542139545       -2.90787041665859       -0.01873668602936
H           -3.61479643853198       -2.75332805471622       -0.03171354018264
H           -2.58123396010177        1.93302940546397        0.09272698660117
H           -0.55433822475191        3.32994904771808        0.11585982578714
H            0.77654831724615        2.63353611858994       -0.80519981746934
H            0.80497569573791        2.59328485990850        0.96066374629623
H            1.48038279357661       -2.47342834711048        0.01332375007346
H            4.05416714363699       -2.48798122682509       -0.01638674297645
H            6.17787347720478        3.27687757691813       -0.04644043685264
H            4.83377316968104        2.58851445026116        0.86177445422001
H            4.80524573856514        2.58098633145191       -0.90435701122169
H            8.19230085326469        1.84373677761943       -0.06441029257432
H            8.98159109091607       -0.60587091418249       -0.06841203461704
