 xtb: 6.5.1 (fef0646)
          02032319583D

 45 48  0     0  0            999 V2000
   -7.8494    1.9693    0.0967 N   0  0  0  0  0  0  0  0  0  0  0  0
   -8.2310    0.7237   -0.6311 C   0  0  0  0  0  0  0  0  0  0  0  0
   -7.7745   -0.5509    0.0833 C   0  0  0  0  0  0  0  0  0  0  0  0
   -6.3001   -0.7627    0.0574 C   0  0  0  0  0  0  0  0  0  0  0  0
   -5.6668   -1.9734    0.0310 C   0  0  0  0  0  0  0  0  0  0  0  0
   -4.2593   -1.8908    0.0247 C   0  0  0  0  0  0  0  0  0  0  0  0
   -3.7730   -0.6024    0.0484 C   0  0  0  0  0  0  0  0  0  0  0  0
   -2.4048   -0.2210    0.0485 C   0  0  0  0  0  0  0  0  0  0  0  0
   -1.9257    1.0784    0.0679 C   0  0  0  0  0  0  0  0  0  0  0  0
   -0.5317    1.1920    0.0616 C   0  0  0  0  0  0  0  0  0  0  0  0
    0.1603    2.5086    0.0800 C   0  0  0  0  0  0  0  0  0  0  0  0
    0.1176   -0.0470    0.0363 C   0  0  0  0  0  0  0  0  0  0  0  0
    1.5104   -0.3067    0.0211 C   0  0  0  0  0  0  0  0  0  0  0  0
    2.0770   -1.5750    0.0059 C   0  0  0  0  0  0  0  0  0  0  0  0
    3.4680   -1.5830   -0.0096 C   0  0  0  0  0  0  0  0  0  0  0  0
    4.0495   -0.3230   -0.0081 C   0  0  0  0  0  0  0  0  0  0  0  0
    5.4529   -0.0808   -0.0248 C   0  0  0  0  0  0  0  0  0  0  0  0
    6.1150    1.1384   -0.0295 C   0  0  0  0  0  0  0  0  0  0  0  0
    5.4476    2.4683   -0.0181 C   0  0  0  0  0  0  0  0  0  0  0  0
    7.5241    0.9963   -0.0478 C   0  0  0  0  0  0  0  0  0  0  0  0
    7.9555   -0.2916   -0.0571 C   0  0  0  0  0  0  0  0  0  0  0  0
    6.6271   -1.3742   -0.0436 S   0  0  0  0  0  0  0  0  0  0  0  0
    2.7901    0.8761    0.0166 S   0  0  0  0  0  0  0  0  0  0  0  0
   -1.0670   -1.3240    0.0238 S   0  0  0  0  0  0  0  0  0  0  0  0
   -5.1189    0.5013    0.0782 S   0  0  0  0  0  0  0  0  0  0  0  0
   -8.2858    1.9991    1.0255 H   0  0  0  0  0  0  0  0  0  0  0  0
   -8.1259    2.8152   -0.4164 H   0  0  0  0  0  0  0  0  0  0  0  0
   -6.8328    1.9957    0.2314 H   0  0  0  0  0  0  0  0  0  0  0  0
   -7.8029    0.7453   -1.6396 H   0  0  0  0  0  0  0  0  0  0  0  0
   -9.3189    0.7137   -0.7689 H   0  0  0  0  0  0  0  0  0  0  0  0
   -8.2612   -1.4256   -0.3629 H   0  0  0  0  0  0  0  0  0  0  0  0
   -8.1078   -0.5246    1.1252 H   0  0  0  0  0  0  0  0  0  0  0  0
   -6.2014   -2.9105    0.0193 H   0  0  0  0  0  0  0  0  0  0  0  0
   -3.6134   -2.7544    0.0041 H   0  0  0  0  0  0  0  0  0  0  0  0
   -2.5817    1.9330    0.0855 H   0  0  0  0  0  0  0  0  0  0  0  0
   -0.5549    3.3302    0.1083 H   0  0  0  0  0  0  0  0  0  0  0  0
    0.7775    2.6328   -0.8099 H   0  0  0  0  0  0  0  0  0  0  0  0
    0.8031    2.5945    0.9561 H   0  0  0  0  0  0  0  0  0  0  0  0
    1.4800   -2.4732    0.0062 H   0  0  0  0  0  0  0  0  0  0  0  0
    4.0538   -2.4878   -0.0227 H   0  0  0  0  0  0  0  0  0  0  0  0
    6.1782    3.2768   -0.0288 H   0  0  0  0  0  0  0  0  0  0  0  0
    4.8333    2.5841    0.8749 H   0  0  0  0  0  0  0  0  0  0  0  0
    4.8062    2.5854   -0.8912 H   0  0  0  0  0  0  0  0  0  0  0  0
    8.1924    1.8435   -0.0539 H   0  0  0  0  0  0  0  0  0  0  0  0
    8.9813   -0.6061   -0.0712 H   0  0  0  0  0  0  0  0  0  0  0  0
  1  2  1  0  0  0  0
  2  3  1  0  0  0  0
  3  4  1  0  0  0  0
  4  5  2  0  0  0  0
  5  6  4  0  0  0  0
  6  7  2  0  0  0  0
  7  8  1  0  0  0  0
  8  9  4  0  0  0  0
  9 10  4  0  0  0  0
 10 11  1  0  0  0  0
 10 12  4  0  0  0  0
 12 13  1  0  0  0  0
 13 14  4  0  0  0  0
 14 15  4  0  0  0  0
 15 16  4  0  0  0  0
 16 17  1  0  0  0  0
 17 18  4  0  0  0  0
 18 19  1  0  0  0  0
 18 20  4  0  0  0  0
 20 21  2  0  0  0  0
 17 22  1  0  0  0  0
 21 22  1  0  0  0  0
 13 23  1  0  0  0  0
 16 23  1  0  0  0  0
  8 24  1  0  0  0  0
 12 24  1  0  0  0  0
  4 25  1  0  0  0  0
  7 25  1  0  0  0  0
  1 26  1  0  0  0  0
  1 27  1  0  0  0  0
  1 28  1  0  0  0  0
  2 29  1  0  0  0  0
  2 30  1  0  0  0  0
  3 31  1  0  0  0  0
  3 32  1  0  0  0  0
  5 33  1  0  0  0  0
  6 34  1  0  0  0  0
  9 35  1  0  0  0  0
 11 36  1  0  0  0  0
 11 37  1  0  0  0  0
 11 38  1  0  0  0  0
 14 39  1  0  0  0  0
 15 40  1  0  0  0  0
 19 41  1  0  0  0  0
 19 42  1  0  0  0  0
 19 43  1  0  0  0  0
 20 44  1  0  0  0  0
 21 45  1  0  0  0  0
M  CHG  1   1   1
M  END
