 xtb: 6.5.1 (fef0646)
          01232320543D

 11 10  0     0  0            999 V2000
    1.0727   -0.0148    0.0716 N   0  0  0  0  0  0  0  0  0  0  0  0
    2.5634   -0.0331    0.0065 C   0  0  0  0  0  0  0  0  0  0  0  0
    3.0490   -1.3335    0.6397 C   0  0  0  0  0  0  0  0  0  0  0  0
    2.4355   -1.4318    1.8621 F   0  0  0  0  0  0  0  0  0  0  0  0
    0.6859    0.8948   -0.2095 H   0  0  0  0  0  0  0  0  0  0  0  0
    0.7981   -0.2121    1.0497 H   0  0  0  0  0  0  0  0  0  0  0  0
    0.6667   -0.7499   -0.5242 H   0  0  0  0  0  0  0  0  0  0  0  0
    2.9417    0.8170    0.5785 H   0  0  0  0  0  0  0  0  0  0  0  0
    2.9037    0.0442   -1.0258 H   0  0  0  0  0  0  0  0  0  0  0  0
    4.1293   -1.3266    0.8014 H   0  0  0  0  0  0  0  0  0  0  0  0
    2.7604   -2.2187    0.0644 H   0  0  0  0  0  0  0  0  0  0  0  0
  1  2  1  0  0  0  0
  2  3  1  0  0  0  0
  3  4  1  0  0  0  0
  1  5  1  0  0  0  0
  1  6  1  0  0  0  0
  1  7  1  0  0  0  0
  2  8  1  0  0  0  0
  2  9  1  0  0  0  0
  3 10  1  0  0  0  0
  3 11  1  0  0  0  0
M  CHG  1   1   1
M  END
