25
 xtb: 6.5.1 (fef0646)
N           -2.66997159262387       -1.96432753465303       -0.66820181691259
C           -1.66961147359413       -2.07566373800744        0.43379589354670
C           -0.54589227031558       -1.09388941464949        0.29790965475788
C           -0.81099057457415        0.28872255320787        0.29165369233064
C            0.19698350735107        1.19864234216533        0.17839215225186
C            0.74812529507483       -1.52478109558130        0.17711004127430
C            1.81932184112833       -0.61115236073928        0.05312453183067
C            1.54002880654972        0.77616957786375        0.05794713557032
C            2.61258129971514        1.68998635745318       -0.06203823976452
C            3.89459100459849        1.24340487818428       -0.18266967993975
C            4.17090685710858       -0.13121125804888       -0.19017204907071
C            3.16110311629518       -1.03896012334205       -0.07500181963945
Cl          -4.13921406702711        1.51585786831210       -0.02650753958888
H           -3.44983005034502       -2.58617008443679       -0.58423038366517
H           -2.26146816444952       -1.96450836557678       -1.57779367076016
H           -3.14338526388517       -0.95074921836190       -0.59866445918839
H           -1.29789507129824       -3.05885862259979        0.43005693261121
H           -2.16103350169666       -1.90193161298576        1.41217643007460
H           -1.81736081112963        0.66411493896007        0.39205590160245
H            0.01065887870961        2.27597602094012        0.20422753320055
H            0.93771526555636       -2.56699828829888        0.15954956417639
H            2.43443661334484        2.74408562237138       -0.04026781600370
H            4.72803630460832        1.92494609440646       -0.27422872257819
H            5.18790887720635       -0.49779405334447       -0.30636690165926
H            3.35536910166479       -2.10586817348458       -0.10206090811128
