25
 xtb: 6.5.1 (fef0646)
N           -2.64679969414876       -1.99798329049489       -0.68231644871950
C           -1.67385778213088       -2.04812797937080        0.45671312447947
C           -0.55008713932129       -1.06938506104685        0.30715537696471
C           -0.80292808891470        0.31561714304142        0.31838382741672
C            0.21377913559918        1.21652895097560        0.20660747624292
C            0.73830370335573       -1.51086884943533        0.16442169703770
C            1.81707690226519       -0.60711206217213        0.04185064200201
C            1.55185803974786        0.78256902770709        0.07022653317019
C            2.63404821987653        1.68599481013944       -0.04324872647341
C            3.91003025862246        1.22708209300701       -0.18018379375406
C            4.17158732833105       -0.14994567778925       -0.21178628770358
C            3.15273043956230       -1.04794530491567       -0.10321699840092
Cl          -4.18545384489580        1.49658769621886       -0.04636851601589
H           -3.44613459630233       -2.59203605532166       -0.58127363478072
H           -2.24911046680048       -1.98960853920310       -1.57755893855992
H           -3.13338114380225       -0.96106583839284       -0.62137806693407
H           -1.29802750533209       -3.05072962859612        0.45212414004337
H           -2.17032917570087       -1.88189412031753        1.41305949970860
H           -1.81406344936397        0.67420319906916        0.40342831642128
H            0.01874547748216        2.28168268475057        0.21717389629844
H            0.93172042549701       -2.56353223491024        0.15107056538292
H            2.44434386457672        2.74350019282809       -0.02909380882463
H            4.73454622442617        1.91801540613518       -0.27185616832707
H            5.18672436643743       -0.50595035314192       -0.31665749200309
H            3.34927682936906       -2.10906792706264       -0.11597765195576
