22
 xtb: 6.5.1 (fef0646)
N           -2.89460785647265        0.87483828024888       -1.27383296530378
C           -3.23334723216212        0.29249929325737        0.05185368691875
C           -2.29848401299912        0.78736920998783        1.14942419092138
C           -0.87288757552623        0.44167849422126        0.90015823961659
C           -0.35109919177202       -0.75609018636150        1.37043252947487
F           -1.14932350959496       -1.62238087202693        2.02154595951125
C            0.97803423601491       -1.07772574554501        1.13600833883343
F            1.47646990478600       -2.23625408700842        1.59324841210821
C            1.78422929930852       -0.21059420438820        0.41535977212209
F            3.06714458073921       -0.52237906077382        0.18606286335884
C            1.25809603462460        0.96961392682693       -0.08630961572880
F            2.02377754053325        1.79088650964249       -0.81892440241292
C           -0.07162844644078        1.29023673737638        0.14771677133336
F           -0.61383031612374        2.38528014201001       -0.41922120082665
Cl           0.16861907354219       -0.99532253917041       -2.58684785496446
H           -2.67666923818050        1.82917123640313       -1.27264270571242
H           -3.51692080898298        0.60375075563825       -2.04319200389334
H           -1.92066118632901        0.40010780243560       -1.61419504359707
H           -3.18871285849457       -0.81755679282427       -0.00639494020488
H           -4.25052666767139        0.55712686221808        0.23050198120982
H           -2.60527550330113        0.37277465252236        2.10285213163731
H           -2.38396549710208        1.87228395631764        1.21814971047682
