16
0.389
N            0.95282  -2.10702  -0.27222
C            1.46810  -0.96693   0.54131
C            0.85860   0.33022   0.15336
C           -0.47062   0.57873   0.07069
C           -0.77978   1.91276  -0.32596
C            0.31659   2.67098  -0.54225
S            1.76028   1.76338  -0.26381
Cl          -2.54205  -2.19902   0.39238
H            1.11775  -1.94093  -1.27311
H           -0.06728  -2.21035  -0.13929
H            1.39749  -2.99925  -0.01648
H            2.55661  -0.89695   0.43707
H            1.27953  -1.15043   1.60540
H           -1.22031  -0.17019   0.27365
H           -1.79045   2.27564  -0.44188
H            0.31119   3.70037  -0.84736
