34
0.07
N           -4.18627   1.23698  -0.01523
C           -3.81149   0.85190   1.37503
C           -2.73653  -0.23196   1.39533
C           -1.51130   0.15410   0.62001
C           -0.51016   0.91540   1.20722
C            0.59558   1.30294   0.48102
C           -1.38617  -0.19435  -0.71824
C           -0.28214   0.19055  -1.44718
C            0.72737   0.94027  -0.85459
N            1.85845   1.30956  -1.58541
N            3.02165   1.06120  -1.23021
C            3.34591   0.24856  -0.14105
C            2.83155  -1.04015  -0.03914
C            3.13266  -1.83053   1.04947
C            3.95532  -1.34713   2.04900
C            4.47758  -0.07112   1.95654
C            4.17688   0.72191   0.86945
Cl          -4.41421  -1.70800  -1.87620
H           -4.99446   1.88039  -0.04489
H           -4.42059   0.39650  -0.57450
H           -3.39816   1.70098  -0.49171
H           -4.70247   0.51400   1.91761
H           -3.45510   1.74013   1.91157
H           -3.14256  -1.15952   0.97679
H           -2.45221  -0.47598   2.42553
H           -0.60677   1.20386   2.24112
H            1.37641   1.88728   0.93748
H           -2.17300  -0.76238  -1.18735
H           -0.18231  -0.08509  -2.48377
H            2.18895  -1.40398  -0.82294
H            2.72485  -2.82661   1.12078
H            4.19088  -1.96614   2.90032
H            5.12108   0.30570   2.73589
H            4.57412   1.71963   0.78775
