12

N          1.04296       -0.02406       -0.17733
C          2.50017       -0.01557       -0.05615
C          3.27274        0.73986       -1.09471
C          3.26701       -0.76347       -1.10453
H          0.61071        0.55808        0.55189
H          0.67262       -0.97874       -0.07620
H          0.73058        0.33760       -1.08811
H          2.90480       -0.04209        0.95501
H          4.19164        1.23396       -0.79016
H          2.76223        1.24931       -1.90428
H          4.18105       -1.26963       -0.80686
H          2.74449       -1.26162       -1.91389
