 xtb: 6.5.1 (fef0646)
          01242310093D

 26 25  0     0  0            999 V2000
   -2.4091   -0.5140   -1.4699 N   0  0  0  0  0  0  0  0  0  0  0  0
   -2.2708   -1.8432   -0.8142 C   0  0  0  0  0  0  0  0  0  0  0  0
   -1.4618   -1.7595    0.4775 C   0  0  0  0  0  0  0  0  0  0  0  0
   -0.1079   -1.1472    0.2738 C   0  0  0  0  0  0  0  0  0  0  0  0
    0.0840    0.2169    0.4477 C   0  0  0  0  0  0  0  0  0  0  0  0
    1.3141    0.7956    0.2241 C   0  0  0  0  0  0  0  0  0  0  0  0
    2.4021    0.0248   -0.1911 C   0  0  0  0  0  0  0  0  0  0  0  0
    3.6813    0.5255   -0.4414 O   0  0  0  0  0  0  0  0  0  0  0  0
    3.8245    1.9121   -0.2323 C   0  0  0  0  0  0  0  0  0  0  0  0
    2.1972   -1.3445   -0.3731 C   0  0  0  0  0  0  0  0  0  0  0  0
    0.9659   -1.9183   -0.1485 C   0  0  0  0  0  0  0  0  0  0  0  0
   -3.0756    1.8141    1.0440 Cl  0  0  0  0  0  0  0  0  0  0  0  0
   -3.0532   -0.5349   -2.2785 H   0  0  0  0  0  0  0  0  0  0  0  0
   -1.4948   -0.1743   -1.8056 H   0  0  0  0  0  0  0  0  0  0  0  0
   -2.7598    0.1897   -0.7947 H   0  0  0  0  0  0  0  0  0  0  0  0
   -1.7896   -2.5407   -1.5102 H   0  0  0  0  0  0  0  0  0  0  0  0
   -3.2651   -2.2617   -0.6136 H   0  0  0  0  0  0  0  0  0  0  0  0
   -1.3468   -2.7532    0.9274 H   0  0  0  0  0  0  0  0  0  0  0  0
   -2.0114   -1.1659    1.2172 H   0  0  0  0  0  0  0  0  0  0  0  0
   -0.7527    0.8263    0.7499 H   0  0  0  0  0  0  0  0  0  0  0  0
    1.4332    1.8550    0.3678 H   0  0  0  0  0  0  0  0  0  0  0  0
    4.8567    2.1910   -0.4485 H   0  0  0  0  0  0  0  0  0  0  0  0
    3.6033    2.1568    0.8078 H   0  0  0  0  0  0  0  0  0  0  0  0
    3.1625    2.4606   -0.9040 H   0  0  0  0  0  0  0  0  0  0  0  0
    3.0308   -1.9439   -0.6976 H   0  0  0  0  0  0  0  0  0  0  0  0
    0.8249   -2.9753   -0.3029 H   0  0  0  0  0  0  0  0  0  0  0  0
  1  2  1  0  0  0  0
  2  3  1  0  0  0  0
  3  4  1  0  0  0  0
  4  5  4  0  0  0  0
  5  6  4  0  0  0  0
  6  7  4  0  0  0  0
  7  8  1  0  0  0  0
  8  9  1  0  0  0  0
  7 10  4  0  0  0  0
  4 11  4  0  0  0  0
 10 11  4  0  0  0  0
  1 13  1  0  0  0  0
  1 14  1  0  0  0  0
  1 15  1  0  0  0  0
  2 16  1  0  0  0  0
  2 17  1  0  0  0  0
  3 18  1  0  0  0  0
  3 19  1  0  0  0  0
  5 20  1  0  0  0  0
  6 21  1  0  0  0  0
  9 22  1  0  0  0  0
  9 23  1  0  0  0  0
  9 24  1  0  0  0  0
 10 25  1  0  0  0  0
 11 26  1  0  0  0  0
M  END
