21
 xtb: 6.5.1 (fef0646)
N           -1.34553672895728       -1.89496842974945        0.38730263071963
C            0.13065381874575       -1.69794461262495        0.46737523935644
C            0.68792568857639       -0.98523278147616       -0.76016785484568
C            2.21044898000587       -0.81636282260350       -0.73427327481452
C            2.72697281187924        0.07352547170378        0.40110829556016
C            2.22675900688085        1.50877473564201        0.31922106574100
Cl          -2.60507501958376        1.69089193233966       -0.07873707010630
H           -1.64884542748274       -2.36953921566148       -0.44161009410072
H           -1.82726592496329       -0.87645754892127        0.26477471246208
H           -1.77985027496725       -2.24332950166402        1.21622318022773
H            0.56751725377027       -2.62972429655913        0.59632052836544
H            0.35417732855009       -1.07905956135993        1.36573071973368
H            0.21342906394586        0.02471301215201       -0.88631542432460
H            0.37596107226759       -1.52082213147482       -1.66045179409111
H            2.55637595589109       -0.41116107834081       -1.68893891019899
H            2.65241611741275       -1.81566937572249       -0.66080055609538
H            3.82624605537568        0.05254514046265        0.40233190819616
H            2.44458846714638       -0.36549706849568        1.37020483584765
H            2.67233915202766        2.13244098269308        1.10622567198802
H            1.15697658848611        1.57378462178584        0.41582087301358
H            2.50828995713234        1.96006780257876       -0.63811127541855
