 xtb: 6.5.1 (fef0646)
          01242310103D

 21 19  0     0  0            999 V2000
   -0.6294   -2.1675   -0.0435 N   0  0  0  0  0  0  0  0  0  0  0  0
    0.7019   -2.0726   -0.6991 C   0  0  0  0  0  0  0  0  0  0  0  0
    1.7383   -1.3653    0.1693 C   0  0  0  0  0  0  0  0  0  0  0  0
    1.3883    0.0874    0.5020 C   0  0  0  0  0  0  0  0  0  0  0  0
    1.3088    0.9972   -0.7249 C   0  0  0  0  0  0  0  0  0  0  0  0
    1.0423    2.4501   -0.3618 C   0  0  0  0  0  0  0  0  0  0  0  0
   -2.1743    0.9336    0.4713 Cl  0  0  0  0  0  0  0  0  0  0  0  0
   -0.5545   -2.6249    0.8795 H   0  0  0  0  0  0  0  0  0  0  0  0
   -1.3024   -2.7133   -0.6081 H   0  0  0  0  0  0  0  0  0  0  0  0
   -1.0474   -1.2311    0.1107 H   0  0  0  0  0  0  0  0  0  0  0  0
    0.6008   -1.5583   -1.6621 H   0  0  0  0  0  0  0  0  0  0  0  0
    1.0510   -3.0831   -0.9497 H   0  0  0  0  0  0  0  0  0  0  0  0
    2.7183   -1.3930   -0.3252 H   0  0  0  0  0  0  0  0  0  0  0  0
    1.8679   -1.9351    1.0988 H   0  0  0  0  0  0  0  0  0  0  0  0
    2.1297    0.4980    1.2007 H   0  0  0  0  0  0  0  0  0  0  0  0
    0.4385    0.1265    1.0485 H   0  0  0  0  0  0  0  0  0  0  0  0
    0.5271    0.6335   -1.4043 H   0  0  0  0  0  0  0  0  0  0  0  0
    2.2429    0.9162   -1.2968 H   0  0  0  0  0  0  0  0  0  0  0  0
    0.1005    2.5557    0.1814 H   0  0  0  0  0  0  0  0  0  0  0  0
    0.9851    3.0912   -1.2452 H   0  0  0  0  0  0  0  0  0  0  0  0
    1.8302    2.8481    0.2819 H   0  0  0  0  0  0  0  0  0  0  0  0
  1  2  1  0  0  0  0
  2  3  1  0  0  0  0
  3  4  1  0  0  0  0
  4  5  1  0  0  0  0
  5  6  1  0  0  0  0
  1  8  1  0  0  0  0
  1  9  1  0  0  0  0
  1 10  1  0  0  0  0
  2 11  1  0  0  0  0
  2 12  1  0  0  0  0
  3 13  1  0  0  0  0
  3 14  1  0  0  0  0
  4 15  1  0  0  0  0
  4 16  1  0  0  0  0
  5 17  1  0  0  0  0
  5 18  1  0  0  0  0
  6 19  1  0  0  0  0
  6 20  1  0  0  0  0
  6 21  1  0  0  0  0
M  END
