 xtb: 6.5.1 (fef0646)
          02032321363D

 42 46  0     0  0            999 V2000
    6.4247   -0.1930    0.9540 N   0  0  0  0  0  0  0  0  0  0  0  0
    6.1411    0.5888   -0.2779 C   0  0  0  0  0  0  0  0  0  0  0  0
    4.7143    1.1104   -0.2656 C   0  0  0  0  0  0  0  0  0  0  0  0
    3.7889    0.0329   -0.2012 O   0  0  0  0  0  0  0  0  0  0  0  0
    2.4865    0.3923   -0.1583 C   0  0  0  0  0  0  0  0  0  0  0  0
    2.0030    1.7199   -0.1392 C   0  0  0  0  0  0  0  0  0  0  0  0
    0.6685    1.9905   -0.0868 C   0  0  0  0  0  0  0  0  0  0  0  0
   -0.3093    0.9756   -0.0504 C   0  0  0  0  0  0  0  0  0  0  0  0
    0.1237   -0.3802   -0.0730 C   0  0  0  0  0  0  0  0  0  0  0  0
   -0.8103   -1.4517   -0.0441 C   0  0  0  0  0  0  0  0  0  0  0  0
   -0.3237   -2.7590   -0.0753 C   0  0  0  0  0  0  0  0  0  0  0  0
    1.0276   -3.0251   -0.1353 C   0  0  0  0  0  0  0  0  0  0  0  0
    1.9364   -1.9938   -0.1632 C   0  0  0  0  0  0  0  0  0  0  0  0
    1.5113   -0.6722   -0.1294 C   0  0  0  0  0  0  0  0  0  0  0  0
   -1.7193    1.2710    0.0047 C   0  0  0  0  0  0  0  0  0  0  0  0
   -2.2067    2.5794    0.0284 C   0  0  0  0  0  0  0  0  0  0  0  0
   -3.5620    2.8501    0.0798 C   0  0  0  0  0  0  0  0  0  0  0  0
   -4.4750    1.8315    0.1095 C   0  0  0  0  0  0  0  0  0  0  0  0
   -4.0496    0.4908    0.0886 C   0  0  0  0  0  0  0  0  0  0  0  0
   -4.9773   -0.5661    0.1189 C   0  0  0  0  0  0  0  0  0  0  0  0
   -4.5497   -1.8645    0.0978 C   0  0  0  0  0  0  0  0  0  0  0  0
   -3.1978   -2.1589    0.0458 C   0  0  0  0  0  0  0  0  0  0  0  0
   -2.2316   -1.1566    0.0132 C   0  0  0  0  0  0  0  0  0  0  0  0
   -2.6602    0.1991    0.0355 C   0  0  0  0  0  0  0  0  0  0  0  0
    7.3542   -0.6285    0.9290 H   0  0  0  0  0  0  0  0  0  0  0  0
    5.7189   -0.9307    1.0568 H   0  0  0  0  0  0  0  0  0  0  0  0
    6.3688    0.4062    1.7850 H   0  0  0  0  0  0  0  0  0  0  0  0
    6.2787   -0.0545   -1.1542 H   0  0  0  0  0  0  0  0  0  0  0  0
    6.8602    1.4101   -0.3773 H   0  0  0  0  0  0  0  0  0  0  0  0
    4.4941    1.6936   -1.1677 H   0  0  0  0  0  0  0  0  0  0  0  0
    4.5512    1.7445    0.6125 H   0  0  0  0  0  0  0  0  0  0  0  0
    2.7003    2.5371   -0.1658 H   0  0  0  0  0  0  0  0  0  0  0  0
    0.3603    3.0196   -0.0734 H   0  0  0  0  0  0  0  0  0  0  0  0
   -1.0077   -3.5873   -0.0550 H   0  0  0  0  0  0  0  0  0  0  0  0
    1.3740   -4.0454   -0.1617 H   0  0  0  0  0  0  0  0  0  0  0  0
    2.9926   -2.1929   -0.2184 H   0  0  0  0  0  0  0  0  0  0  0  0
   -1.5228    3.4075    0.0067 H   0  0  0  0  0  0  0  0  0  0  0  0
   -3.9019    3.8730    0.0963 H   0  0  0  0  0  0  0  0  0  0  0  0
   -5.5287    2.0478    0.1492 H   0  0  0  0  0  0  0  0  0  0  0  0
   -6.0293   -0.3412    0.1589 H   0  0  0  0  0  0  0  0  0  0  0  0
   -5.2704   -2.6658    0.1216 H   0  0  0  0  0  0  0  0  0  0  0  0
   -2.9010   -3.1913    0.0308 H   0  0  0  0  0  0  0  0  0  0  0  0
  1  2  1  0  0  0  0
  2  3  1  0  0  0  0
  3  4  1  0  0  0  0
  4  5  1  0  0  0  0
  5  6  4  0  0  0  0
  6  7  4  0  0  0  0
  7  8  4  0  0  0  0
  8  9  4  0  0  0  0
  9 10  4  0  0  0  0
 10 11  4  0  0  0  0
 11 12  4  0  0  0  0
 12 13  4  0  0  0  0
  5 14  4  0  0  0  0
  9 14  4  0  0  0  0
 13 14  4  0  0  0  0
  8 15  1  0  0  0  0
 15 16  4  0  0  0  0
 16 17  4  0  0  0  0
 17 18  2  0  0  0  0
 18 19  4  0  0  0  0
 19 20  4  0  0  0  0
 20 21  2  0  0  0  0
 21 22  4  0  0  0  0
 10 23  1  0  0  0  0
 22 23  4  0  0  0  0
 15 24  4  0  0  0  0
 19 24  4  0  0  0  0
 23 24  4  0  0  0  0
  1 25  1  0  0  0  0
  1 26  1  0  0  0  0
  1 27  1  0  0  0  0
  2 28  1  0  0  0  0
  2 29  1  0  0  0  0
  3 30  1  0  0  0  0
  3 31  1  0  0  0  0
  6 32  1  0  0  0  0
  7 33  1  0  0  0  0
 11 34  1  0  0  0  0
 12 35  1  0  0  0  0
 13 36  1  0  0  0  0
 16 37  1  0  0  0  0
 17 38  1  0  0  0  0
 18 39  1  0  0  0  0
 20 40  1  0  0  0  0
 21 41  1  0  0  0  0
 22 42  1  0  0  0  0
M  CHG  1   1   1
M  END
