 xtb: 6.5.1 (fef0646)
          01242310033D

 18 16  0     0  0            999 V2000
   -0.0173    1.6917   -0.0181 N   0  0  0  0  0  0  0  0  0  0  0  0
    1.1171    0.9675   -0.6536 C   0  0  0  0  0  0  0  0  0  0  0  0
    1.3951   -0.3956   -0.0032 C   0  0  0  0  0  0  0  0  0  0  0  0
    2.4316   -1.1812   -0.8096 C   0  0  0  0  0  0  0  0  0  0  0  0
    1.8398   -0.2419    1.4514 C   0  0  0  0  0  0  0  0  0  0  0  0
   -2.7589   -0.4455   -0.0026 Cl  0  0  0  0  0  0  0  0  0  0  0  0
   -0.2459    2.5704   -0.5138 H   0  0  0  0  0  0  0  0  0  0  0  0
    0.1916    1.9362    0.9617 H   0  0  0  0  0  0  0  0  0  0  0  0
   -0.8702    1.1018   -0.0127 H   0  0  0  0  0  0  0  0  0  0  0  0
    2.0237    1.5815   -0.6112 H   0  0  0  0  0  0  0  0  0  0  0  0
    0.9067    0.8264   -1.7207 H   0  0  0  0  0  0  0  0  0  0  0  0
    0.4480   -0.9627   -0.0134 H   0  0  0  0  0  0  0  0  0  0  0  0
    2.6162   -2.1655   -0.3742 H   0  0  0  0  0  0  0  0  0  0  0  0
    3.3841   -0.6492   -0.8336 H   0  0  0  0  0  0  0  0  0  0  0  0
    2.1106   -1.3273   -1.8433 H   0  0  0  0  0  0  0  0  0  0  0  0
    2.7496    0.3572    1.5147 H   0  0  0  0  0  0  0  0  0  0  0  0
    2.0536   -1.2111    1.9070 H   0  0  0  0  0  0  0  0  0  0  0  0
    1.0787    0.2481    2.0613 H   0  0  0  0  0  0  0  0  0  0  0  0
  1  2  1  0  0  0  0
  2  3  1  0  0  0  0
  3  4  1  0  0  0  0
  3  5  1  0  0  0  0
  1  7  1  0  0  0  0
  1  8  1  0  0  0  0
  1  9  1  0  0  0  0
  2 10  1  0  0  0  0
  2 11  1  0  0  0  0
  3 12  1  0  0  0  0
  4 13  1  0  0  0  0
  4 14  1  0  0  0  0
  4 15  1  0  0  0  0
  5 16  1  0  0  0  0
  5 17  1  0  0  0  0
  5 18  1  0  0  0  0
M  END
