25
0.055
N           -2.43124   1.24020   1.02856
C           -1.09750   1.88204   1.21449
C           -0.48475   2.36853  -0.09580
C           -0.05645   1.23056  -1.02877
C            1.00229   0.34665  -0.43364
C            2.30108   0.80936  -0.28005
C            3.27071   0.01107   0.29377
C            2.95272  -1.26137   0.72422
C            1.66414  -1.73369   0.57859
C            0.69691  -0.93398   0.00413
Cl          -2.52004  -1.74355  -0.86661
H           -2.85134   0.96111   1.92660
H           -2.36706   0.39286   0.44352
H           -3.08727   1.88550   0.56151
H           -0.41430   1.17717   1.70257
H           -1.19996   2.72053   1.91498
H            0.38688   3.00054   0.11534
H           -1.20140   3.02325  -0.60590
H            0.31595   1.63507  -1.97754
H           -0.92672   0.62302  -1.29837
H            2.54678   1.80371  -0.61400
H            4.27673   0.38256   0.40646
H            3.70910  -1.88507   1.17324
H            1.41247  -2.72728   0.91331
H           -0.30819  -1.30234  -0.11460
