25
1.267
N           -2.70252  -0.20119   0.75440
C           -1.63336   0.43984  -0.06560
C           -0.26009  -0.16492   0.19493
C            0.84653   0.47581  -0.64503
C            2.19903  -0.11711  -0.37563
C            3.02264   0.41668   0.60544
C            4.25310  -0.14825   0.87653
C            4.67309  -1.25960   0.17360
C            3.85928  -1.80615  -0.79815
C            2.62908  -1.23982  -1.06827
Cl          -5.80140   1.32065   0.04688
H           -2.76854  -1.20784   0.55119
H           -3.62862   0.21845   0.57171
H           -2.50505  -0.10053   1.76224
H           -1.60718   1.51718   0.13702
H           -1.88022   0.35131  -1.13020
H           -0.28916  -1.24348   0.00248
H           -0.01264  -0.07396   1.25866
H            0.87827   1.55488  -0.45777
H            0.61101   0.37568  -1.71049
H            2.68978   1.27929   1.15844
H            4.88523   0.27799   1.63910
H            5.63369  -1.70141   0.38517
H            4.18315  -2.67700  -1.34530
H            1.98909  -1.66948  -1.82079
