25
0.0
N           -2.35985   1.42665  -0.98837
C           -1.01280   2.06700  -0.95947
C           -0.50583   2.31785   0.45799
C           -0.15245   1.03368   1.21615
C            0.96176   0.25754   0.57392
C            2.26755   0.72243   0.63213
C            3.29142   0.02807   0.01879
C            3.02145  -1.14064  -0.66433
C            1.72648  -1.61323  -0.73189
C            0.70493  -0.91779  -0.11709
Cl          -2.57409  -1.84677   0.31263
H           -2.34392   0.48904  -0.55833
H           -2.71185   1.31625  -1.95006
H           -3.04640   1.99220  -0.46505
H           -1.05540   3.01218  -1.51562
H           -0.29558   1.44155  -1.50352
H           -1.26124   2.88656   1.01350
H            0.37951   2.96490   0.42576
H           -1.03811   0.39535   1.30026
H            0.13223   1.26698   2.24921
H            2.47599   1.63640   1.16300
H            4.30228   0.39961   0.07289
H            3.82050  -1.68315  -1.14383
H            1.51225  -2.52574  -1.26483
H           -0.30557  -1.28767  -0.16388
