25
1.148
N           -2.06390   0.84043   0.59542
C           -1.23564   1.01979  -0.63160
C           -0.27744   2.20273  -0.52980
C            0.82556   2.00523   0.51606
C            1.71701   0.83344   0.21967
C            1.57155  -0.36543   0.90394
C            2.37434  -1.44879   0.60706
C            3.33194  -1.34871  -0.38205
C            3.48379  -0.16401  -1.07376
C            2.68007   0.91853  -0.77525
Cl          -4.25309  -1.87272   0.16094
H           -2.61360   1.68749   0.79681
H           -1.47607   0.65101   1.41930
H           -2.72640   0.04925   0.49896
H           -1.89906   1.14429  -1.49689
H           -0.66932   0.10219  -0.82916
H           -0.85033   3.11019  -0.30389
H            0.18796   2.38754  -1.50593
H            0.38167   1.88030   1.50916
H            1.44430   2.90759   0.59141
H            0.82084  -0.44566   1.67205
H            2.25167  -2.37411   1.14696
H            3.95880  -2.19461  -0.61482
H            4.22924  -0.08399  -1.84871
H            2.79403   1.84253  -1.31718
