 xtb: 6.5.1 (fef0646)
          01242317003D

 35 36  0     0  0            999 V2000
   -5.6800   -0.7753   -1.7599 N   0  0  0  0  0  0  0  0  0  0  0  0
   -5.9543    0.2837   -0.7451 C   0  0  0  0  0  0  0  0  0  0  0  0
   -5.3041   -0.0117    0.6053 C   0  0  0  0  0  0  0  0  0  0  0  0
   -3.8073   -0.0744    0.5326 C   0  0  0  0  0  0  0  0  0  0  0  0
   -3.1386   -1.2922    0.5796 C   0  0  0  0  0  0  0  0  0  0  0  0
   -1.7692   -1.3494    0.4873 C   0  0  0  0  0  0  0  0  0  0  0  0
   -1.0033   -0.1828    0.3410 C   0  0  0  0  0  0  0  0  0  0  0  0
    0.4250   -0.2824    0.2472 C   0  0  0  0  0  0  0  0  0  0  0  0
    1.2856    0.7615    0.1113 C   0  0  0  0  0  0  0  0  0  0  0  0
    2.7135    0.6583    0.0178 C   0  0  0  0  0  0  0  0  0  0  0  0
    3.3883   -0.5695    0.0524 C   0  0  0  0  0  0  0  0  0  0  0  0
    4.7638   -0.6339   -0.0395 C   0  0  0  0  0  0  0  0  0  0  0  0
    5.3878   -1.8219   -0.0037 F   0  0  0  0  0  0  0  0  0  0  0  0
    5.4976    0.5383   -0.1689 C   0  0  0  0  0  0  0  0  0  0  0  0
    4.8559    1.7596   -0.2057 C   0  0  0  0  0  0  0  0  0  0  0  0
    3.4854    1.8250   -0.1144 C   0  0  0  0  0  0  0  0  0  0  0  0
   -1.6882    1.0411    0.2939 C   0  0  0  0  0  0  0  0  0  0  0  0
   -3.0585    1.0872    0.3871 C   0  0  0  0  0  0  0  0  0  0  0  0
   -6.1139   -0.5531   -2.6632 H   0  0  0  0  0  0  0  0  0  0  0  0
   -6.0448   -1.6822   -1.4471 H   0  0  0  0  0  0  0  0  0  0  0  0
   -4.6698   -0.8784   -1.9114 H   0  0  0  0  0  0  0  0  0  0  0  0
   -7.0389    0.3977   -0.6291 H   0  0  0  0  0  0  0  0  0  0  0  0
   -5.5915    1.2454   -1.1249 H   0  0  0  0  0  0  0  0  0  0  0  0
   -5.6869   -0.9596    0.9958 H   0  0  0  0  0  0  0  0  0  0  0  0
   -5.5909    0.7455    1.3436 H   0  0  0  0  0  0  0  0  0  0  0  0
   -3.7061   -2.1997    0.6953 H   0  0  0  0  0  0  0  0  0  0  0  0
   -1.2694   -2.3021    0.5279 H   0  0  0  0  0  0  0  0  0  0  0  0
    0.8325   -1.2758    0.2914 H   0  0  0  0  0  0  0  0  0  0  0  0
    0.8799    1.7557    0.0703 H   0  0  0  0  0  0  0  0  0  0  0  0
    2.8509   -1.4934    0.1509 H   0  0  0  0  0  0  0  0  0  0  0  0
    6.5693    0.4712   -0.2390 H   0  0  0  0  0  0  0  0  0  0  0  0
    5.4324    2.6648   -0.3063 H   0  0  0  0  0  0  0  0  0  0  0  0
    2.9908    2.7808   -0.1437 H   0  0  0  0  0  0  0  0  0  0  0  0
   -1.1392    1.9589    0.1826 H   0  0  0  0  0  0  0  0  0  0  0  0
   -3.5670    2.0356    0.3502 H   0  0  0  0  0  0  0  0  0  0  0  0
  1  2  1  0  0  0  0
  2  3  1  0  0  0  0
  3  4  1  0  0  0  0
  4  5  4  0  0  0  0
  5  6  4  0  0  0  0
  6  7  4  0  0  0  0
  7  8  1  0  0  0  0
  8  9  2  0  0  0  0
  9 10  1  0  0  0  0
 10 11  4  0  0  0  0
 11 12  4  0  0  0  0
 12 13  1  0  0  0  0
 12 14  4  0  0  0  0
 14 15  4  0  0  0  0
 10 16  4  0  0  0  0
 15 16  4  0  0  0  0
  7 17  4  0  0  0  0
  4 18  4  0  0  0  0
 17 18  4  0  0  0  0
  1 19  1  0  0  0  0
  1 20  1  0  0  0  0
  1 21  1  0  0  0  0
  2 22  1  0  0  0  0
  2 23  1  0  0  0  0
  3 24  1  0  0  0  0
  3 25  1  0  0  0  0
  5 26  1  0  0  0  0
  6 27  1  0  0  0  0
  8 28  1  0  0  0  0
  9 29  1  0  0  0  0
 11 30  1  0  0  0  0
 14 31  1  0  0  0  0
 15 32  1  0  0  0  0
 16 33  1  0  0  0  0
 17 34  1  0  0  0  0
 18 35  1  0  0  0  0
M  CHG  1   1   1
M  END
