26
 xtb: 6.5.1 (fef0646)
N           -2.13332899949517       -0.69632635324740        0.66082289089700
C           -2.10193372830851       -0.86208458589323       -0.81961132345275
C           -0.93051959140770       -1.74560335785147       -1.23501022771823
C            0.38664515675063       -1.15421197451266       -0.82766132981655
C            0.94944322337508       -0.12165210409449       -1.56331236565001
C            2.14224020501179        0.45212905179267       -1.18422915182231
C            2.81800190675261        0.01391359714887       -0.04280508857546
O            4.03440831209455        0.53302629218031        0.40888175261804
C            4.57027844776692        1.56727297587316       -0.38865699299937
C            2.23511379758565       -1.01576907839102        0.70073146238569
C            1.04309434789618       -1.58589041870294        0.31700543110481
Cl          -5.00200990847547        1.72011937763820        1.45771973920533
H           -2.34595558582682       -1.52799446341849        1.14782906720368
H           -2.96867934660929        0.00029319157962        0.92286659903147
H           -1.32216806397621       -0.22710154240914        1.01831272365760
H           -2.02091941012757        0.14218127292264       -1.30625394040279
H           -3.06868502537442       -1.25042818554884       -1.17746405489089
H           -0.95283861547964       -1.91540433564398       -2.28574342630733
H           -1.06786175978772       -2.71010942723677       -0.73743768257541
H            0.42234449594415        0.23804896435790       -2.42978029086408
H            2.54967927982088        1.24560299187461       -1.77739238691242
H            5.51113025805403        1.89361730138178        0.04650580676997
H            3.87887466311380        2.41268161097588       -0.41255372244056
H            4.75663020424793        1.20442239088731       -1.40308242174904
H            2.74951261218744       -1.36187359054985        1.58082517977507
H            0.60633869395468       -2.37321334561927        0.91474222082297
