 xtb: 6.5.1 (fef0646)
          01242317073D

 26 25  0     0  0            999 V2000
   -2.2229   -0.6095    0.6618 N   0  0  0  0  0  0  0  0  0  0  0  0
   -2.1313   -0.8188   -0.8105 C   0  0  0  0  0  0  0  0  0  0  0  0
   -0.9604   -1.7200   -1.1942 C   0  0  0  0  0  0  0  0  0  0  0  0
    0.3672   -1.1396   -0.8054 C   0  0  0  0  0  0  0  0  0  0  0  0
    0.9325   -0.1134   -1.5482 C   0  0  0  0  0  0  0  0  0  0  0  0
    2.1331    0.4524   -1.1805 C   0  0  0  0  0  0  0  0  0  0  0  0
    2.8152    0.0108   -0.0446 C   0  0  0  0  0  0  0  0  0  0  0  0
    4.0362    0.5267    0.4017 O   0  0  0  0  0  0  0  0  0  0  0  0
    4.5663    1.5661   -0.3923 C   0  0  0  0  0  0  0  0  0  0  0  0
    2.2355   -1.0194    0.7001 C   0  0  0  0  0  0  0  0  0  0  0  0
    1.0359   -1.5808    0.3279 C   0  0  0  0  0  0  0  0  0  0  0  0
   -4.8553    1.5980    1.4001 Cl  0  0  0  0  0  0  0  0  0  0  0  0
   -2.3700   -1.5016    1.1532 H   0  0  0  0  0  0  0  0  0  0  0  0
   -3.0028    0.0243    0.9131 H   0  0  0  0  0  0  0  0  0  0  0  0
   -1.3537   -0.1955    1.0256 H   0  0  0  0  0  0  0  0  0  0  0  0
   -2.0244    0.1517   -1.3084 H   0  0  0  0  0  0  0  0  0  0  0  0
   -3.0752   -1.2383   -1.1798 H   0  0  0  0  0  0  0  0  0  0  0  0
   -0.9621   -1.9156   -2.2727 H   0  0  0  0  0  0  0  0  0  0  0  0
   -1.0796   -2.6990   -0.7188 H   0  0  0  0  0  0  0  0  0  0  0  0
    0.4157    0.2419   -2.4239 H   0  0  0  0  0  0  0  0  0  0  0  0
    2.5468    1.2452   -1.7772 H   0  0  0  0  0  0  0  0  0  0  0  0
    5.5112    1.8921    0.0437 H   0  0  0  0  0  0  0  0  0  0  0  0
    3.8779    2.4126   -0.4103 H   0  0  0  0  0  0  0  0  0  0  0  0
    4.7529    1.2062   -1.4054 H   0  0  0  0  0  0  0  0  0  0  0  0
    2.7517   -1.3646    1.5788 H   0  0  0  0  0  0  0  0  0  0  0  0
    0.6042   -2.3709    0.9190 H   0  0  0  0  0  0  0  0  0  0  0  0
  1  2  1  0  0  0  0
  2  3  1  0  0  0  0
  3  4  1  0  0  0  0
  4  5  4  0  0  0  0
  5  6  4  0  0  0  0
  6  7  4  0  0  0  0
  7  8  1  0  0  0  0
  8  9  1  0  0  0  0
  7 10  4  0  0  0  0
  4 11  4  0  0  0  0
 10 11  4  0  0  0  0
  1 13  1  0  0  0  0
  1 14  1  0  0  0  0
  1 15  1  0  0  0  0
  2 16  1  0  0  0  0
  2 17  1  0  0  0  0
  3 18  1  0  0  0  0
  3 19  1  0  0  0  0
  5 20  1  0  0  0  0
  6 21  1  0  0  0  0
  9 22  1  0  0  0  0
  9 23  1  0  0  0  0
  9 24  1  0  0  0  0
 10 25  1  0  0  0  0
 11 26  1  0  0  0  0
M  END
