30
1.49
N           -2.01646   0.07874  -1.63940
C           -1.14062   0.84030  -0.70087
C           -0.78125   0.02846   0.53767
C            0.03667   0.81044   1.57049
C            1.39409   1.30283   1.05915
C            2.33927   0.17472   0.64456
C            3.70673   0.68291   0.18622
C            4.68064  -0.43643  -0.19423
C            4.24206  -1.22749  -1.41839
Cl          -4.88048  -0.86491   0.15835
H           -2.27786   0.63463  -2.46553
H           -2.88542  -0.21136  -1.16520
H           -1.54615  -0.77814  -1.96786
H           -1.64067   1.76866  -0.39972
H           -0.23033   1.15540  -1.22307
H           -0.24007  -0.87498   0.23541
H           -1.70574  -0.34237   0.99757
H            0.19670   0.18889   2.46073
H           -0.55687   1.66490   1.92022
H            1.88344   1.91243   1.82961
H            1.24958   1.98585   0.21388
H            1.87967  -0.41592  -0.15533
H            2.46670  -0.52429   1.47962
H            4.14045   1.30455   0.98018
H            3.57581   1.36000  -0.66664
H            4.80635  -1.11188   0.66198
H            5.67885  -0.01238  -0.37060
H            4.10088  -0.57358  -2.28103
H            3.29578  -1.74295  -1.24674
H            4.97555  -1.98656  -1.69991
