25
0.682
N           -3.17437   1.49351   0.64704
C           -1.82716   2.03376   0.30175
C           -0.73159   0.98649   0.45216
C            0.65602   1.51039   0.07789
C            1.72658   0.46655   0.21061
C            1.99961  -0.40085  -0.83756
C            2.96102  -1.38333  -0.70702
C            3.65807  -1.51485   0.47722
C            3.38926  -0.66473   1.53097
C            2.42722   0.31721   1.39894
Cl          -3.60721  -1.32979  -1.39447
H           -3.92025   2.19017   0.51112
H           -3.20567   1.18104   1.62690
H           -3.39272   0.67314   0.05591
H           -1.60066   2.90245   0.93122
H           -1.83378   2.41378  -0.72670
H           -0.97177   0.11255  -0.16431
H           -0.71788   0.61072   1.48152
H            0.90899   2.37468   0.70198
H            0.64551   1.89070  -0.94971
H            1.44884  -0.30148  -1.75816
H            3.16586  -2.04926  -1.53003
H            4.40904  -2.28181   0.57977
H            3.92930  -0.76844   2.45847
H            2.21059   0.97652   2.22287
