35
 xtb: 6.5.1 (fef0646)
N           -7.35363030861606       -0.14019358639614        0.74759083393427
C           -5.86570592032012       -0.08083382073561        0.85742316544664
C           -5.18259069484295        0.01976257930259       -0.50270102394003
C           -3.68631412720988        0.08908250071374       -0.40582544193424
C           -2.92048395823517       -1.07429054482749       -0.36222990855783
C           -1.55011500171628       -1.01831812860917       -0.25660482494444
C           -0.88295378809753        0.21610405826350       -0.18305488820936
C            0.54707448274041        0.32714622841049       -0.09260796670461
C            1.42770501815216       -0.71007805468136       -0.10233419304276
C            2.85854891323575       -0.58603764232648       -0.03872316610878
C            3.49950954221530        0.64314210863532        0.16779704369741
C            4.87853048431736        0.73482918455361        0.19330607698838
F            5.46601172322852        1.92210480302673        0.39111101271163
C            5.65119494817487       -0.41014584491603        0.02273908923216
C            5.04206422265111       -1.63499640090077       -0.16390124775673
C            3.66708850310123       -1.72807821411107       -0.19212701720240
C           -1.66607242921565        1.38242767915697       -0.21081262397750
C           -3.03574711189316        1.31638179096456       -0.31942256865489
H           -7.78412668309511       -0.20321544177531        1.71438585508538
H           -7.65077121892126       -0.95278851233935        0.23488068735197
H           -7.71864512310103        0.70532935366990        0.32182820816021
H           -5.48670613781684       -0.96683863724968        1.40602163763353
H           -5.55895036407142        0.77549292421238        1.49376897673121
H           -5.56165414742138        0.89537764423002       -1.02414503265130
H           -5.47716502660694       -0.84072460428097       -1.10614946260543
H           -3.41090396812973       -2.02637479088502       -0.50954363378968
H           -0.97988953585977       -1.92896390488983       -0.34080312217056
H            0.93517003464597        1.32610747063883       -0.01370293812880
H            1.04448965086216       -1.70349624900242       -0.26126489552014
H            2.93817545211230        1.55936996810343        0.21808153062318
H            6.71890050847119       -0.32683301087142        0.14077219821791
H            5.64083778942256       -2.53278755019555       -0.17631487637710
H            3.19615889139009       -2.69077377695258       -0.30566078386002
H           -1.18657804570217        2.33713869263721       -0.08906001344883
H           -3.62673070692217        2.21511331623322       -0.26049014251609
