26
0.504
N            1.53820  -0.33529  -0.61953
C            0.88914  -1.43954   0.14273
C           -0.48894  -1.79792  -0.40972
C           -1.47102  -0.66571  -0.31756
C           -1.63650   0.16106  -1.34644
C           -2.56525   1.33600  -1.34952
C           -3.58019   1.30078  -0.19488
C           -2.90508   0.87775   1.11603
C           -2.22838  -0.49578   0.97366
Cl           4.66389   0.41713   0.78824
H            0.96107   0.51724  -0.59351
H            1.66303  -0.59315  -1.60886
H            2.47010  -0.09503  -0.23439
H            0.79889  -1.15007   1.19630
H            1.54280  -2.32059   0.13589
H           -0.89811  -2.66754   0.11910
H           -0.39583  -2.11212  -1.45503
H           -1.06656  -0.02589  -2.24254
H           -3.08804   1.39279  -2.31435
H           -1.97302   2.25749  -1.28225
H           -4.38191   0.59149  -0.43478
H           -4.07549   2.27485  -0.07998
H           -3.63075   0.87076   1.94115
H           -2.15390   1.62709   1.39460
H           -2.98437  -1.28733   1.04085
H           -1.54537  -0.67287   1.81415
