 xtb: 6.5.1 (fef0646)
          01242314573D

 17 16  0     0  0            999 V2000
    0.9369    0.0458   -0.0727 N   0  0  0  0  0  0  0  0  0  0  0  0
    2.4191    0.0297   -0.0849 C   0  0  0  0  0  0  0  0  0  0  0  0
    2.9371   -0.7696   -1.2772 C   0  0  0  0  0  0  0  0  0  0  0  0
    4.4676   -0.7737   -1.2888 C   0  0  0  0  0  0  0  0  0  0  0  0
    4.9850   -1.5704   -2.4733 C   0  0  0  0  0  0  0  0  0  0  0  0
    6.9863   -1.5911   -2.5143 Br  0  0  0  0  0  0  0  0  0  0  0  0
    0.5876    0.5795    0.7316 H   0  0  0  0  0  0  0  0  0  0  0  0
    0.5711   -0.9121   -0.0152 H   0  0  0  0  0  0  0  0  0  0  0  0
    0.5778    0.4768   -0.9331 H   0  0  0  0  0  0  0  0  0  0  0  0
    2.7805   -0.4169    0.8411 H   0  0  0  0  0  0  0  0  0  0  0  0
    2.7886    1.0534   -0.1407 H   0  0  0  0  0  0  0  0  0  0  0  0
    2.5823   -0.3311   -2.2103 H   0  0  0  0  0  0  0  0  0  0  0  0
    2.5853   -1.8003   -1.2238 H   0  0  0  0  0  0  0  0  0  0  0  0
    4.8509   -1.2148   -0.3673 H   0  0  0  0  0  0  0  0  0  0  0  0
    4.8471    0.2474   -1.3526 H   0  0  0  0  0  0  0  0  0  0  0  0
    4.6840   -1.1374   -3.4255 H   0  0  0  0  0  0  0  0  0  0  0  0
    4.6891   -2.6169   -2.4282 H   0  0  0  0  0  0  0  0  0  0  0  0
  1  2  1  0  0  0  0
  2  3  1  0  0  0  0
  3  4  1  0  0  0  0
  4  5  1  0  0  0  0
  5  6  1  0  0  0  0
  1  7  1  0  0  0  0
  1  8  1  0  0  0  0
  1  9  1  0  0  0  0
  2 10  1  0  0  0  0
  2 11  1  0  0  0  0
  3 12  1  0  0  0  0
  3 13  1  0  0  0  0
  4 14  1  0  0  0  0
  4 15  1  0  0  0  0
  5 16  1  0  0  0  0
  5 17  1  0  0  0  0
M  CHG  1   1   1
M  END
