 xtb: 6.5.1 (fef0646)
          01232320533D

 18 17  0     0  0            999 V2000
    0.8910   -0.0609    0.0734 N   0  0  0  0  0  0  0  0  0  0  0  0
    2.3887   -0.0306    0.1028 C   0  0  0  0  0  0  0  0  0  0  0  0
    2.9337   -0.0411   -1.3158 C   0  0  0  0  0  0  0  0  0  0  0  0
    4.4639   -0.0651   -1.3447 C   0  0  0  0  0  0  0  0  0  0  0  0
    4.9342   -0.3019   -2.7885 C   0  0  0  0  0  0  0  0  0  0  0  0
    4.4397   -1.5171   -3.2941 O   0  0  0  0  0  0  0  0  0  0  0  0
    0.4905   -0.0506    1.0199 H   0  0  0  0  0  0  0  0  0  0  0  0
    0.5743   -0.9096   -0.4152 H   0  0  0  0  0  0  0  0  0  0  0  0
    0.5390    0.7541   -0.4469 H   0  0  0  0  0  0  0  0  0  0  0  0
    2.7396   -0.9034    0.6551 H   0  0  0  0  0  0  0  0  0  0  0  0
    2.7075    0.8688    0.6315 H   0  0  0  0  0  0  0  0  0  0  0  0
    2.5895    0.8414   -1.8581 H   0  0  0  0  0  0  0  0  0  0  0  0
    2.5878   -0.9284   -1.8510 H   0  0  0  0  0  0  0  0  0  0  0  0
    4.8318   -0.8738   -0.7104 H   0  0  0  0  0  0  0  0  0  0  0  0
    4.8750    0.8745   -0.9789 H   0  0  0  0  0  0  0  0  0  0  0  0
    6.0262   -0.2591   -2.8351 H   0  0  0  0  0  0  0  0  0  0  0  0
    4.5315    0.4801   -3.4374 H   0  0  0  0  0  0  0  0  0  0  0  0
    5.0101   -2.2424   -3.0190 H   0  0  0  0  0  0  0  0  0  0  0  0
  1  2  1  0  0  0  0
  2  3  1  0  0  0  0
  3  4  1  0  0  0  0
  4  5  1  0  0  0  0
  5  6  1  0  0  0  0
  1  7  1  0  0  0  0
  1  8  1  0  0  0  0
  1  9  1  0  0  0  0
  2 10  1  0  0  0  0
  2 11  1  0  0  0  0
  3 12  1  0  0  0  0
  3 13  1  0  0  0  0
  4 14  1  0  0  0  0
  4 15  1  0  0  0  0
  5 16  1  0  0  0  0
  5 17  1  0  0  0  0
  6 18  1  0  0  0  0
M  CHG  1   1   1
M  END
