 xtb: 6.5.1 (fef0646)
          01242316573D

 16 15  0     0  0            999 V2000
    3.8043   -0.6094    0.7724 N   0  0  0  0  0  0  0  0  0  0  0  0
    3.1522   -0.0866   -0.4636 C   0  0  0  0  0  0  0  0  0  0  0  0
    1.7220    0.2440   -0.2442 C   0  0  0  0  0  0  0  0  0  0  0  0
    1.2466    1.4343    0.1968 C   0  0  0  0  0  0  0  0  0  0  0  0
   -0.1726    1.4657    0.3321 C   0  0  0  0  0  0  0  0  0  0  0  0
   -0.7652    0.3002   -0.0049 C   0  0  0  0  0  0  0  0  0  0  0  0
    0.4053   -0.8690   -0.4995 S   0  0  0  0  0  0  0  0  0  0  0  0
   -4.1410   -0.1814    0.1440 Cl  0  0  0  0  0  0  0  0  0  0  0  0
    3.7516    0.0834    1.5293 H   0  0  0  0  0  0  0  0  0  0  0  0
    4.7974   -0.8414    0.6183 H   0  0  0  0  0  0  0  0  0  0  0  0
    3.3247   -1.4574    1.0990 H   0  0  0  0  0  0  0  0  0  0  0  0
    3.2303   -0.8263   -1.2682 H   0  0  0  0  0  0  0  0  0  0  0  0
    3.6825    0.8032   -0.8223 H   0  0  0  0  0  0  0  0  0  0  0  0
    1.8845    2.2743    0.4242 H   0  0  0  0  0  0  0  0  0  0  0  0
   -0.7153    2.3358    0.6715 H   0  0  0  0  0  0  0  0  0  0  0  0
   -1.8213    0.1069    0.0247 H   0  0  0  0  0  0  0  0  0  0  0  0
  1  2  1  0  0  0  0
  2  3  1  0  0  0  0
  3  4  2  0  0  0  0
  4  5  4  0  0  0  0
  5  6  2  0  0  0  0
  3  7  1  0  0  0  0
  6  7  1  0  0  0  0
  1  9  1  0  0  0  0
  1 10  1  0  0  0  0
  1 11  1  0  0  0  0
  2 12  1  0  0  0  0
  2 13  1  0  0  0  0
  4 14  1  0  0  0  0
  5 15  1  0  0  0  0
  6 16  1  0  0  0  0
M  END
