16
1.457
N            0.02519  -1.66009   0.59702
C            1.11004  -0.89021  -0.07855
C            1.08806   0.58931   0.29378
C            2.17416   1.37256  -0.36545
C            3.39878   1.44222   0.11812
Cl          -3.02420  -0.15754  -0.28428
H           -0.90092  -1.26737   0.35423
H            0.12015  -1.60872   1.62053
H            0.02742  -2.65413   0.32757
H            1.02003  -0.99592  -1.16622
H            2.08602  -1.32084   0.17445
H            1.17230   0.69524   1.38147
H            0.10860   1.01583   0.04411
H            1.94865   1.85199  -1.30563
H            3.66067   0.94847   1.03400
H            4.17705   1.98967  -0.37904
