16
0.748
N           -0.06386  -1.97077   0.09932
C            1.11634  -1.17859  -0.35394
C            1.35017   0.05686   0.51064
C            2.50042   0.88708   0.04498
C            2.37085   2.12219  -0.39914
Cl          -2.80052   0.22500   0.03153
H           -0.23486  -2.79463  -0.49955
H           -0.91430  -1.38643   0.08498
H            0.06376  -2.30154   1.06552
H            0.97936  -0.87354  -1.39824
H            2.01360  -1.80857  -0.35100
H            1.50707  -0.24444   1.55323
H            0.43878   0.66612   0.52717
H            3.47597   0.42704   0.05809
H            1.41108   2.60013  -0.43761
H            3.21259   2.69552  -0.73865
