 xtb: 6.5.1 (fef0646)
          01242310123D

 21 21  0     0  0            999 V2000
   -2.3073   -0.2048   -1.1857 N   0  0  0  0  0  0  0  0  0  0  0  0
   -1.6639    0.4179    0.0157 C   0  0  0  0  0  0  0  0  0  0  0  0
   -2.3163   -0.0614    1.3085 C   0  0  0  0  0  0  0  0  0  0  0  0
   -0.1698    0.1929    0.0126 C   0  0  0  0  0  0  0  0  0  0  0  0
    0.7143    1.2783   -0.0356 C   0  0  0  0  0  0  0  0  0  0  0  0
    2.0915    1.0758   -0.0432 C   0  0  0  0  0  0  0  0  0  0  0  0
    2.6065   -0.2148   -0.0033 C   0  0  0  0  0  0  0  0  0  0  0  0
    1.7420   -1.3024    0.0432 C   0  0  0  0  0  0  0  0  0  0  0  0
    0.3645   -1.0997    0.0502 C   0  0  0  0  0  0  0  0  0  0  0  0
   -1.8697    0.1288   -2.0565 H   0  0  0  0  0  0  0  0  0  0  0  0
   -3.3126    0.0157   -1.2332 H   0  0  0  0  0  0  0  0  0  0  0  0
   -2.2154   -1.2296   -1.1640 H   0  0  0  0  0  0  0  0  0  0  0  0
   -1.8288    1.5062   -0.0641 H   0  0  0  0  0  0  0  0  0  0  0  0
   -2.1977   -1.1383    1.4271 H   0  0  0  0  0  0  0  0  0  0  0  0
   -3.3863    0.1519    1.3177 H   0  0  0  0  0  0  0  0  0  0  0  0
   -1.8705    0.4175    2.1819 H   0  0  0  0  0  0  0  0  0  0  0  0
    0.3224    2.2816   -0.0677 H   0  0  0  0  0  0  0  0  0  0  0  0
    2.7610    1.9216   -0.0804 H   0  0  0  0  0  0  0  0  0  0  0  0
    3.6746   -0.3719   -0.0087 H   0  0  0  0  0  0  0  0  0  0  0  0
    2.1400   -2.3051    0.0742 H   0  0  0  0  0  0  0  0  0  0  0  0
   -0.2987   -1.9473    0.0856 H   0  0  0  0  0  0  0  0  0  0  0  0
  1  2  1  0  0  0  0
  2  3  1  0  0  0  0
  2  4  1  0  0  0  0
  4  5  4  0  0  0  0
  5  6  4  0  0  0  0
  6  7  4  0  0  0  0
  7  8  4  0  0  0  0
  4  9  4  0  0  0  0
  8  9  4  0  0  0  0
  1 10  1  0  0  0  0
  1 11  1  0  0  0  0
  1 12  1  0  0  0  0
  2 13  1  0  0  0  0
  3 14  1  0  0  0  0
  3 15  1  0  0  0  0
  3 16  1  0  0  0  0
  5 17  1  0  0  0  0
  6 18  1  0  0  0  0
  7 19  1  0  0  0  0
  8 20  1  0  0  0  0
  9 21  1  0  0  0  0
M  CHG  1   1   1
M  END
