41
0.58
N            5.80749  -1.77474   0.29217
C            5.44001  -0.65847   1.21280
C            4.77739   0.51345   0.49460
C            3.38970   0.18411  -0.05564
C            2.73030   1.37366  -0.75548
C            1.35597   1.05453  -1.35065
C            0.28682   0.74976  -0.30036
C           -1.09496   0.50649  -0.90852
C           -2.16774   0.20957   0.13957
C           -3.55054  -0.02470  -0.46922
C           -4.62544  -0.31703   0.57801
C           -6.00956  -0.54728  -0.03064
C           -7.07533  -0.83643   1.01584
H            4.97551  -2.17651  -0.15516
H            6.28895  -2.53235   0.79080
H            6.43071  -1.44062  -0.45172
H            6.34333  -0.31729   1.73291
H            4.77375  -1.03557   1.99670
H            5.42317   0.85018  -0.32301
H            4.69795   1.37227   1.17148
H            2.75179  -0.17050   0.76058
H            3.45570  -0.65551  -0.75497
H            3.40152   1.73786  -1.54241
H            2.63794   2.20646  -0.04969
H            1.44294   0.20700  -2.03944
H            1.01505   1.89317  -1.96942
H            0.23098   1.57685   0.41609
H            0.58096  -0.12332   0.29162
H           -1.04090  -0.32149  -1.62404
H           -1.39361   1.37801  -1.50158
H           -2.21804   1.03577   0.85751
H           -1.87283  -0.66501   0.73005
H           -3.50086  -0.85210  -1.18576
H           -3.84337   0.84936  -1.06148
H           -4.67313   0.50947   1.29573
H           -4.33393  -1.19232   1.16911
H           -5.95535  -1.37301  -0.75042
H           -6.29396   0.32981  -0.62450
H           -6.82765  -1.72675   1.59470
H           -8.05609  -0.99913   0.56633
H           -7.17012  -0.00957   1.72043
