41
 xtb: 6.5.1 (fef0646)
N            5.81128870426889       -1.76675520867534        0.29453084135206
C            5.40446472630789       -0.67300228075527        1.22251988959696
C            4.78180063826087        0.51475555097387        0.49249101555321
C            3.39360640632770        0.19348344527369       -0.06385535872130
C            2.73363085217547        1.37934365863101       -0.76852054340080
C            1.35688153948094        1.05648534805373       -1.35739102066523
C            0.28995537032774        0.75280925941266       -0.30402636296118
C           -1.09271919196952        0.50559465399418       -0.90942641366317
C           -2.16440298391547        0.21004057149559        0.14044333561383
C           -3.54761577798904       -0.02783850554663       -0.46653172482199
C           -4.62166910936759       -0.31829829019890        0.58223856432836
C           -6.00610295675634       -0.55207954300199       -0.02464824755030
C           -7.07059221197213       -0.83969279045870        1.02361255191610
H            4.98921062038229       -2.07630947935435       -0.26767739166438
H            6.16316161944502       -2.59449540667020        0.81608125019329
H            6.54895771095897       -1.46641419178053       -0.36499587199156
H            6.32455381892404       -0.32982433138300        1.75605602826762
H            4.74659465298697       -1.04352564385083        1.98336867689243
H            5.42794529435733        0.84665171808732       -0.32218266502443
H            4.70002042520980        1.37353963486587        1.16965138048413
H            2.75199885989889       -0.16697233087151        0.75785898922032
H            3.45553742430681       -0.65392604124383       -0.75697995760859
H            3.40178187911033        1.73835182211991       -1.54727276144546
H            2.63958262260436        2.20898827448359       -0.05445713056258
H            1.44284008543462        0.20712349886375       -2.04094251533656
H            1.01455360798768        1.89314577276218       -1.97176260839781
H            0.23182825969310        1.57825225583309        0.41439213446970
H            0.58239836238331       -0.12190074528107        0.29111924051462
H           -1.04013786132334       -0.32232910903537       -1.62361072576132
H           -1.39352924160952        1.37712109323502       -1.50249577610591
H           -2.21725685500957        1.03643868697066        0.85713472431970
H           -1.87140390190294       -0.66429975129309        0.73093922811937
H           -3.49985968960946       -0.85363534883177       -1.18420902619790
H           -3.84295181739713        0.84782991732541       -1.06141981697425
H           -4.67219726482249        0.50967633767932        1.29630394946436
H           -4.33244460618744       -1.19208264548708        1.17105865861811
H           -5.95419193871397       -1.37498107721532       -0.74794389991342
H           -6.29343586968595        0.32784611767623       -0.62339063345399
H           -6.82568948887911       -1.72701705742983        1.59775041533693
H           -8.05475152515464       -1.00099414594576        0.56902246851206
H           -7.16899785354888       -0.00992778183362        1.72200845641539
