 xtb: 6.5.1 (fef0646)
          01242317123D

 41 40  0     0  0            999 V2000
    5.8075   -1.7748    0.2922 N   0  0  0  0  0  0  0  0  0  0  0  0
    5.4400   -0.6585    1.2128 C   0  0  0  0  0  0  0  0  0  0  0  0
    4.7774    0.5134    0.4946 C   0  0  0  0  0  0  0  0  0  0  0  0
    3.3897    0.1841   -0.0557 C   0  0  0  0  0  0  0  0  0  0  0  0
    2.7303    1.3736   -0.7555 C   0  0  0  0  0  0  0  0  0  0  0  0
    1.3560    1.0545   -1.3507 C   0  0  0  0  0  0  0  0  0  0  0  0
    0.2868    0.7498   -0.3004 C   0  0  0  0  0  0  0  0  0  0  0  0
   -1.0950    0.5065   -0.9085 C   0  0  0  0  0  0  0  0  0  0  0  0
   -2.1677    0.2096    0.1396 C   0  0  0  0  0  0  0  0  0  0  0  0
   -3.5505   -0.0247   -0.4692 C   0  0  0  0  0  0  0  0  0  0  0  0
   -4.6254   -0.3170    0.5780 C   0  0  0  0  0  0  0  0  0  0  0  0
   -6.0096   -0.5472   -0.0306 C   0  0  0  0  0  0  0  0  0  0  0  0
   -7.0753   -0.8364    1.0159 C   0  0  0  0  0  0  0  0  0  0  0  0
    4.9755   -2.1765   -0.1552 H   0  0  0  0  0  0  0  0  0  0  0  0
    6.2889   -2.5324    0.7908 H   0  0  0  0  0  0  0  0  0  0  0  0
    6.4307   -1.4407   -0.4517 H   0  0  0  0  0  0  0  0  0  0  0  0
    6.3433   -0.3173    1.7329 H   0  0  0  0  0  0  0  0  0  0  0  0
    4.7738   -1.0356    1.9967 H   0  0  0  0  0  0  0  0  0  0  0  0
    5.4232    0.8502   -0.3230 H   0  0  0  0  0  0  0  0  0  0  0  0
    4.6980    1.3722    1.1715 H   0  0  0  0  0  0  0  0  0  0  0  0
    2.7518   -0.1705    0.7606 H   0  0  0  0  0  0  0  0  0  0  0  0
    3.4557   -0.6555   -0.7550 H   0  0  0  0  0  0  0  0  0  0  0  0
    3.4015    1.7378   -1.5424 H   0  0  0  0  0  0  0  0  0  0  0  0
    2.6380    2.2064   -0.0497 H   0  0  0  0  0  0  0  0  0  0  0  0
    1.4429    0.2070   -2.0394 H   0  0  0  0  0  0  0  0  0  0  0  0
    1.0151    1.8932   -1.9694 H   0  0  0  0  0  0  0  0  0  0  0  0
    0.2310    1.5768    0.4161 H   0  0  0  0  0  0  0  0  0  0  0  0
    0.5810   -0.1233    0.2916 H   0  0  0  0  0  0  0  0  0  0  0  0
   -1.0409   -0.3215   -1.6240 H   0  0  0  0  0  0  0  0  0  0  0  0
   -1.3936    1.3780   -1.5016 H   0  0  0  0  0  0  0  0  0  0  0  0
   -2.2180    1.0358    0.8575 H   0  0  0  0  0  0  0  0  0  0  0  0
   -1.8728   -0.6650    0.7301 H   0  0  0  0  0  0  0  0  0  0  0  0
   -3.5009   -0.8521   -1.1857 H   0  0  0  0  0  0  0  0  0  0  0  0
   -3.8434    0.8494   -1.0615 H   0  0  0  0  0  0  0  0  0  0  0  0
   -4.6731    0.5095    1.2957 H   0  0  0  0  0  0  0  0  0  0  0  0
   -4.3339   -1.1923    1.1691 H   0  0  0  0  0  0  0  0  0  0  0  0
   -5.9554   -1.3730   -0.7504 H   0  0  0  0  0  0  0  0  0  0  0  0
   -6.2940    0.3298   -0.6245 H   0  0  0  0  0  0  0  0  0  0  0  0
   -6.8277   -1.7267    1.5947 H   0  0  0  0  0  0  0  0  0  0  0  0
   -8.0561   -0.9991    0.5664 H   0  0  0  0  0  0  0  0  0  0  0  0
   -7.1701   -0.0095    1.7205 H   0  0  0  0  0  0  0  0  0  0  0  0
  1  2  1  0  0  0  0
  2  3  1  0  0  0  0
  3  4  1  0  0  0  0
  4  5  1  0  0  0  0
  5  6  1  0  0  0  0
  6  7  1  0  0  0  0
  7  8  1  0  0  0  0
  8  9  1  0  0  0  0
  9 10  1  0  0  0  0
 10 11  1  0  0  0  0
 11 12  1  0  0  0  0
 12 13  1  0  0  0  0
  1 14  1  0  0  0  0
  1 15  1  0  0  0  0
  1 16  1  0  0  0  0
  2 17  1  0  0  0  0
  2 18  1  0  0  0  0
  3 19  1  0  0  0  0
  3 20  1  0  0  0  0
  4 21  1  0  0  0  0
  4 22  1  0  0  0  0
  5 23  1  0  0  0  0
  5 24  1  0  0  0  0
  6 25  1  0  0  0  0
  6 26  1  0  0  0  0
  7 27  1  0  0  0  0
  7 28  1  0  0  0  0
  8 29  1  0  0  0  0
  8 30  1  0  0  0  0
  9 31  1  0  0  0  0
  9 32  1  0  0  0  0
 10 33  1  0  0  0  0
 10 34  1  0  0  0  0
 11 35  1  0  0  0  0
 11 36  1  0  0  0  0
 12 37  1  0  0  0  0
 12 38  1  0  0  0  0
 13 39  1  0  0  0  0
 13 40  1  0  0  0  0
 13 41  1  0  0  0  0
M  CHG  1   1   1
M  END
