 xtb: 6.5.1 (fef0646)
          01242316563D

 16 14  0     0  0            999 V2000
    1.6939    2.1442    0.3449 O   0  0  0  0  0  0  0  0  0  0  0  0
    2.6462    1.0948    0.3805 C   0  0  0  0  0  0  0  0  0  0  0  0
    2.3469   -0.0117   -0.6284 C   0  0  0  0  0  0  0  0  0  0  0  0
    1.0102   -0.6918   -0.3628 C   0  0  0  0  0  0  0  0  0  0  0  0
   -0.1415    0.2078   -0.6406 N   0  0  0  0  0  0  0  0  0  0  0  0
   -3.1507   -1.2794    0.3645 Cl  0  0  0  0  0  0  0  0  0  0  0  0
    1.9259    2.8585    0.9699 H   0  0  0  0  0  0  0  0  0  0  0  0
    2.6648    0.6754    1.3945 H   0  0  0  0  0  0  0  0  0  0  0  0
    3.6419    1.5192    0.1964 H   0  0  0  0  0  0  0  0  0  0  0  0
    3.1572   -0.7514   -0.6242 H   0  0  0  0  0  0  0  0  0  0  0  0
    2.3378    0.4174   -1.6355 H   0  0  0  0  0  0  0  0  0  0  0  0
    0.9729   -1.0284    0.6802 H   0  0  0  0  0  0  0  0  0  0  0  0
    0.9126   -1.6017   -0.9682 H   0  0  0  0  0  0  0  0  0  0  0  0
   -0.0109    1.0927   -0.1284 H   0  0  0  0  0  0  0  0  0  0  0  0
   -1.0435   -0.2067   -0.3559 H   0  0  0  0  0  0  0  0  0  0  0  0
   -0.1953    0.4412   -1.6433 H   0  0  0  0  0  0  0  0  0  0  0  0
  1  2  1  0  0  0  0
  2  3  1  0  0  0  0
  3  4  1  0  0  0  0
  4  5  1  0  0  0  0
  1  7  1  0  0  0  0
  2  8  1  0  0  0  0
  2  9  1  0  0  0  0
  3 10  1  0  0  0  0
  3 11  1  0  0  0  0
  4 12  1  0  0  0  0
  4 13  1  0  0  0  0
  5 14  1  0  0  0  0
  5 15  1  0  0  0  0
  5 16  1  0  0  0  0
M  END
