35
1.963
N           -7.56796  -0.06034   0.03711
C           -6.14964   0.40445   0.11029
C           -5.15014  -0.72704  -0.11475
C           -3.69534  -0.34602  -0.04436
C           -3.26042   0.95817   0.17051
C           -1.92092   1.25975   0.22208
C           -0.94548   0.26501   0.05828
C            0.44400   0.61859   0.11480
C            1.48648  -0.23979  -0.04468
C            2.87648   0.11177   0.01054
C            3.84433  -0.88116  -0.19223
C            5.19271  -0.59132  -0.14995
F            6.10060  -1.56007  -0.34824
C            5.60275   0.71190   0.09956
C            4.66896   1.70766   0.30342
C            3.32450   1.42000   0.26115
C           -1.39119  -1.04741  -0.15740
C           -2.73337  -1.33740  -0.20616
H           -7.76759  -0.47174  -0.88048
H           -8.22436   0.71309   0.18775
H           -7.75157  -0.77509   0.74894
H           -5.97233   0.86697   1.08766
H           -5.99067   1.19302  -0.63361
H           -5.34201  -1.18355  -1.09079
H           -5.33716  -1.51796   0.61824
H           -3.98059   1.74696   0.29847
H           -1.60759   2.27605   0.38930
H            0.66050   1.65558   0.29516
H            1.26967  -1.27521  -0.23348
H            3.54547  -1.89498  -0.38719
H            6.65728   0.92423   0.12981
H            4.99698   2.71617   0.49663
H            2.61311   2.20946   0.42396
H           -0.67809  -1.84194  -0.28517
H           -3.05505  -2.35151  -0.37344
