 xtb: 6.5.1 (fef0646)
          01242317083D

 27 27  0     0  0            999 V2000
   -3.0608   -0.2481   -1.0396 N   0  0  0  0  0  0  0  0  0  0  0  0
   -2.6004   -0.6554    0.3213 C   0  0  0  0  0  0  0  0  0  0  0  0
   -1.5203    0.2599    0.8918 C   0  0  0  0  0  0  0  0  0  0  0  0
   -0.1884    0.2489    0.1180 C   0  0  0  0  0  0  0  0  0  0  0  0
    0.5194   -1.1271    0.1671 C   0  0  0  0  0  0  0  0  0  0  0  0
    1.8437   -1.1140   -0.6170 C   0  0  0  0  0  0  0  0  0  0  0  0
    2.7835   -0.0079   -0.1072 C   0  0  0  0  0  0  0  0  0  0  0  0
    2.0935    1.3662   -0.1503 C   0  0  0  0  0  0  0  0  0  0  0  0
    0.7725    1.3469    0.6379 C   0  0  0  0  0  0  0  0  0  0  0  0
   -3.8291   -0.8433   -1.3687 H   0  0  0  0  0  0  0  0  0  0  0  0
   -2.3014   -0.3151   -1.7261 H   0  0  0  0  0  0  0  0  0  0  0  0
   -3.3934    0.7220   -1.0333 H   0  0  0  0  0  0  0  0  0  0  0  0
   -2.2437   -1.6899    0.2904 H   0  0  0  0  0  0  0  0  0  0  0  0
   -3.4668   -0.6691    0.9938 H   0  0  0  0  0  0  0  0  0  0  0  0
   -1.3156   -0.0045    1.9347 H   0  0  0  0  0  0  0  0  0  0  0  0
   -1.9055    1.2841    0.9228 H   0  0  0  0  0  0  0  0  0  0  0  0
   -0.4000    0.4755   -0.9371 H   0  0  0  0  0  0  0  0  0  0  0  0
   -0.1418   -1.9147   -0.2109 H   0  0  0  0  0  0  0  0  0  0  0  0
    0.7146   -1.3853    1.2130 H   0  0  0  0  0  0  0  0  0  0  0  0
    1.6343   -0.9506   -1.6802 H   0  0  0  0  0  0  0  0  0  0  0  0
    2.3347   -2.0942   -0.5622 H   0  0  0  0  0  0  0  0  0  0  0  0
    3.7150    0.0077   -0.6877 H   0  0  0  0  0  0  0  0  0  0  0  0
    3.0833   -0.2319    0.9229 H   0  0  0  0  0  0  0  0  0  0  0  0
    1.8906    1.6383   -1.1923 H   0  0  0  0  0  0  0  0  0  0  0  0
    2.7616    2.1483    0.2328 H   0  0  0  0  0  0  0  0  0  0  0  0
    0.2822    2.3268    0.6036 H   0  0  0  0  0  0  0  0  0  0  0  0
    0.9801    1.1603    1.6965 H   0  0  0  0  0  0  0  0  0  0  0  0
  1  2  1  0  0  0  0
  2  3  1  0  0  0  0
  3  4  1  0  0  0  0
  4  5  1  0  0  0  0
  5  6  1  0  0  0  0
  6  7  1  0  0  0  0
  7  8  1  0  0  0  0
  4  9  1  0  0  0  0
  8  9  1  0  0  0  0
  1 10  1  0  0  0  0
  1 11  1  0  0  0  0
  1 12  1  0  0  0  0
  2 13  1  0  0  0  0
  2 14  1  0  0  0  0
  3 15  1  0  0  0  0
  3 16  1  0  0  0  0
  4 17  1  0  0  0  0
  5 18  1  0  0  0  0
  5 19  1  0  0  0  0
  6 20  1  0  0  0  0
  6 21  1  0  0  0  0
  7 22  1  0  0  0  0
  7 23  1  0  0  0  0
  8 24  1  0  0  0  0
  8 25  1  0  0  0  0
  9 26  1  0  0  0  0
  9 27  1  0  0  0  0
M  CHG  1   1   1
M  END
