40

N          2.40692        0.22982        0.89639
C          2.66980        1.39426        1.76393
C          4.14269        1.48563        2.14717
C          5.06544        1.64383        0.96997
C          4.83765        2.23900       -0.25444
C          5.98548        2.20455       -1.09414
C          7.08099        1.62566       -0.48059
C          8.41539        1.50255       -1.01203
C          9.34402        0.51101       -0.77118
C         10.57125        0.73026       -1.46891
C         10.56275        1.89053       -2.22427
C         11.62051        2.43379       -3.05230
C         11.64405        3.64742       -3.71660
C         12.85498        3.86067       -4.44000
C         13.73513        2.80709       -4.32105
C         15.05389        2.68449       -4.90275
C         15.70634        1.52629       -5.28654
C         17.00878        1.77257       -5.81266
C         17.31661        3.11285       -5.81398
S         16.03881        4.06298       -5.19560
S         13.07714        1.57139       -3.33495
S          9.05127        2.68720       -2.07151
S          6.67383        1.06261        1.08537
Cl        -0.27176        0.89810       -0.02418
H          1.39417        0.32366        0.58429
H          2.46847       -0.68847        1.33761
H          2.90855        0.24442        0.00357
H          2.04160        1.27484        2.65195
H          2.34727        2.28500        1.21777
H          4.41475        0.59704        2.73061
H          4.27638        2.35271        2.80638
H          3.89891        2.69162       -0.55723
H          6.00818        2.61266       -2.09761
H          9.16133       -0.34352       -0.13156
H         11.41476        0.05499       -1.40944
H         10.83498        4.36789       -3.69337
H         13.05383        4.75241       -5.02431
H         15.27248        0.53691       -5.20257
H         17.68374        1.00391       -6.16799
H         18.23065        3.58278       -6.15018
