  45

 N         -7.7973744340        2.0171282793        0.2310072294
 C         -8.1658323067        0.7298208077        0.8906177509
 C         -7.7513973382       -0.4999401167        0.0785028930
 C         -6.2798798650       -0.7281774598        0.0379685644
 C         -5.6606092570       -1.9451478368       -0.0175507064
 C         -4.2529253006       -1.8767510609       -0.0596577150
 C         -3.7526776460       -0.5936349339       -0.0395392642
 C         -2.3812241333       -0.2252875158       -0.0663111390
 C         -1.8908806382        1.0700605885       -0.0646143593
 C         -0.4961300720        1.1716351365       -0.0838500341
 C          0.2063329297        2.4829530061       -0.0828742042
 C          0.1426359039       -0.0731637885       -0.0931708348
 C          1.5332834031       -0.3438854662       -0.0908198759
 C          2.0928924638       -1.6151189754       -0.1033220197
 C          3.4842167891       -1.6354847135       -0.0836490036
 C          4.0733895808       -0.3778459100       -0.0540312986
 C          5.4567595564       -0.0371463392       -0.0177356287
 C          6.5738823091       -0.8620930123        0.0244903571
 C          6.5518530603       -2.3500338245        0.0477617757
 C          7.7902583521       -0.1359332860        0.0518030094
 C          7.6390663562        1.2132412264        0.0337433620
 S          5.9783609590        1.6310039879       -0.0182158799
 S          2.8213503005        0.8287174142       -0.0647642343
 S         -1.0532211365       -1.3396700218       -0.1013798913
 S         -5.0858688755        0.5238070396        0.0328650065
 H         -8.0405550913        2.8302018115        0.8099339188
 H         -8.2711457874        2.1137261109       -0.6748150987
 H         -6.7869366370        2.0405535547        0.0560645516
 H         -9.2478355423        0.7212299264        1.0688646320
 H         -7.7000024105        0.6809408147        1.8814255320
 H         -8.1205119868       -0.4012870020       -0.9471393673
 H         -8.2335795800       -1.3968782513        0.4832493136
 H         -6.2053036175       -2.8763403686       -0.0318499773
 H         -3.6175637523       -2.7472648046       -0.1027769634
 H         -2.5395270622        1.9303833209       -0.0467181355
 H         -0.5015615073        3.3101953054       -0.1245819640
 H          0.8681165947        2.5670732720       -0.9449933159
 H          0.8051703040        2.5995766399        0.8204935586
 H          1.4891218754       -2.5086004216       -0.1234529493
 H          4.0423064346       -2.5556654345       -0.0916069221
 H          6.0984947106       -2.7475706179       -0.8600687707
 H          6.0005743891       -2.7183510599        0.9129611511
 H          7.5624038040       -2.7530916662        0.1104863551
 H          8.7538168126       -0.6208770684        0.0842577770
 H          8.4358933383        1.9318380783        0.0496318603
          45
        -68.60153067
 N         -7.8613802475        1.9607305338        0.1009756851
 C         -8.2372243079        0.7089474204       -0.6188580536
 C         -7.7741446467       -0.5585607452        0.1038149324
 C         -6.2990641762       -0.7648793745        0.0759838723
 C         -5.6623928447       -1.9739628571        0.0611066725
 C         -4.2552169664       -1.8874430584        0.0470177271
 C         -3.7722051586       -0.5975971879        0.0534124636
 C         -2.4044644841       -0.2146471610        0.0409583909
 C         -1.9250585762        1.0847726994        0.0478807981
 C         -0.5309816820        1.1980311800        0.0322176471
 C          0.1616888230        2.5143712161        0.0364438487
 C          0.1180285608       -0.0412299969        0.0141518798
 C          1.5105424306       -0.3023622449       -0.0013187984
 C          2.0753522835       -1.5713680086       -0.0251727530
 C          3.4663604828       -1.5813282697       -0.0341007509
 C          4.0498333661       -0.3223728939       -0.0172114908
 C          5.4538057235       -0.0829128710       -0.0193718911
 C          6.1186023445        1.1347183210       -0.0028858581
 C          5.4539658187        2.4657801706        0.0194277393
 C          7.5275233673        0.9896096600       -0.0093695080
 C          7.9561522446       -0.2990078911       -0.0304388762
 S          6.6253702094       -1.3786969409       -0.0440643291
 S          2.7920403816        0.8785557527        0.0074195000
 S         -1.0669345260       -1.3178709591        0.0140745959
 S         -5.1213184824        0.5026788893        0.0789389017
 H         -8.1414057961        2.8019343327       -0.4177235518
 H         -6.8454336701        1.9920927614        0.2360415651
 H         -8.2988516000        1.9947363772        1.0297323392
 H         -7.8094622851        0.7262274783       -1.6276481910
 H         -9.3251490354        0.6928338324       -0.7562272089
 H         -8.2584263422       -1.4383925389       -0.3349116704
 H         -8.1053072661       -0.5258875955        1.1462925037
 H         -6.1938735333       -2.9128855103        0.0630627209
 H         -3.6066140487       -2.7490916498        0.0321412963
 H         -2.5805737694        1.9399124588        0.0637275479
 H          0.7895337450        2.6171575713        0.9210504245
 H         -0.5533492861        3.3370371349        0.0359478762
 H          0.7940104830        2.6205663356       -0.8451191476
 H          1.4774179571       -2.4687861747       -0.0355216162
 H          4.0511563334       -2.4868104389       -0.0517527717
 H          4.8273978645        2.5988915814       -0.8623919361
 H          6.1865671204        3.2726861418        0.0343558283
 H          4.8253351397        2.5684015618        0.9035892970
 H          8.1979824553        1.8350659840        0.0030917455
 H          8.9814170542       -0.6158697665       -0.0370743959
