  45

 N         -7.7679576845       -1.7095607717       -1.2170423683
 C         -8.2658118615       -0.3145349839       -1.0531900678
 C         -7.7324495233        0.3346114154        0.2221369363
 C         -6.2639543216        0.5758152607        0.1721011031
 C         -5.6634590511        1.7487022456       -0.1909987240
 C         -4.2549895654        1.7055430186       -0.1597910105
 C         -3.7444276230        0.4867897964        0.2289889745
 C         -2.3639446014        0.1607076256        0.3515524870
 C         -1.8509480231       -1.0595159331        0.7615568257
 C         -0.4510513518       -1.1282395212        0.7936281612
 C          0.2784810585       -2.3588668070        1.2040279838
 C          0.1619350585        0.0653822616        0.3952138355
 C          1.5501427165        0.3496232699        0.2956550482
 C          2.0811096401        1.5709999364       -0.1002804282
 C          3.4742432457        1.6143792790       -0.1274343895
 C          4.0877336462        0.4258398742        0.2480729756
 C          5.4811733164        0.1241707901        0.3296776093
 C          6.5825710849        0.9418218705        0.1012141742
 C          6.5317509737        2.3786102794       -0.2840390906
 C          7.8151672217        0.2609323650        0.2774746182
 C          7.6879843959       -1.0433963783        0.6365478915
 S          6.0362895785       -1.4688646333        0.7694431503
 S          2.8609416090       -0.7397355626        0.6327303474
 S         -1.0591304023        1.2397880737        0.0058751908
 S         -5.0606582886       -0.6069713671        0.5489973701
 H         -8.0061007024       -2.1073934917       -2.1393281806
 H         -8.1603535542       -2.3309770695       -0.4932441194
 H         -6.7432570722       -1.7282417731       -1.1090910707
 H         -9.3631885934       -0.3195835635       -1.0581084494
 H         -7.9636120187        0.2858209833       -1.9196290621
 H         -7.9572529997       -0.3061040604        1.0817153873
 H         -8.2449721024        1.2845507812        0.4152916518
 H         -6.2220837959        2.6287400709       -0.4732247753
 H         -3.6268688531        2.5461236669       -0.4129296775
 H         -2.4840697409       -1.8891009751        1.0338630280
 H         -0.4124841330       -3.1400898642        1.5225932878
 H          0.9522638794       -2.1500771434        2.0357630920
 H          0.8708740987       -2.7511838239        0.3768173749
 H          1.4571560299        2.4105632884       -0.3662223689
 H          4.0153707536        2.4974402666       -0.4242516010
 H          5.9834521834        2.9619071432        0.4559408633
 H          6.0591754955        2.5048313017       -1.2586809077
 H          7.5355103489        2.8002674618       -0.3509972435
 H          8.7709991099        0.7444224505        0.1376461513
 H          8.4988789247       -1.7249715679        0.8163088158
          45
        -68.49485442
 N         -7.8912657107       -1.3896411494        1.4279641674
 C         -8.3503405918       -0.0462567981        0.9744710827
 C         -7.7653071835        0.3265795096       -0.3862982240
 C         -6.2959502849        0.5623499293       -0.3340906397
 C         -5.6906006132        1.7832474368       -0.2278240537
 C         -4.2828601856        1.7242210911       -0.1913246122
 C         -3.7778922238        0.4449620787       -0.2676776773
 C         -2.3993119451        0.0898342180       -0.2556446578
 C         -1.8893927245       -1.1950149010       -0.3509159760
 C         -0.4904608761       -1.2771990305       -0.3080878888
 C          0.2362701373       -2.5725601120       -0.3979657680
 C          0.1245770676       -0.0274853318       -0.1714670898
 C          1.5115303115        0.2662291611       -0.0820455069
 C          2.0386281930        1.5461588106        0.0406905561
 C          3.4291495128        1.5890546387        0.1182674884
 C          4.0444575673        0.3462921762        0.0600040626
 C          5.4551448113        0.1403061682        0.1249710505
 C          6.1551608514       -1.0582603388        0.0843884158
 C          5.5320179506       -2.4038860037       -0.0381016795
 C          7.5591135364       -0.8755410501        0.1761934575
 C          7.9463524040        0.4228154042        0.2851297492
 S          6.5845413233        1.4592063421        0.2773028473
 S          2.8223042308       -0.8758357527       -0.1003686777
 S         -1.0924282389        1.2123649138       -0.1162362780
 S         -5.0985960705       -0.6838182369       -0.3791845594
 H         -8.2776583770       -2.1353776035        0.8294287792
 H         -8.1639254213       -1.5924289479        2.4027029891
 H         -6.8648420029       -1.4469943267        1.3584446538
 H         -8.0587118494        0.7091638006        1.7140160875
 H         -9.4470602898       -0.0301376770        0.9452641857
 H         -8.2576606557        1.2210885953       -0.7860100933
 H         -7.9710440637       -0.4737550525       -1.1053858234
 H         -6.2446779330        2.7089212606       -0.1791105373
 H         -3.6511750291        2.5961994118       -0.1146583707
 H         -2.5238374240       -2.0614126673       -0.4509117501
 H          0.8148912238       -2.7550586879        0.5082424872
 H          0.9219594563       -2.5729144064       -1.2459927689
 H         -0.4554076842       -3.4055482022       -0.5273242600
 H          1.4157675214        2.4268388304        0.0750733392
 H          3.9887410792        2.5065641520        0.2179600728
 H          4.9610536976       -2.4826637154       -0.9634840549
 H          4.8565943868       -2.5945520844        0.7966631112
 H          6.2879821042       -3.1899912238       -0.0431629539
 H          8.2551631868       -1.7013982060        0.1609905985
 H          8.9604703640        0.7685556000        0.3661514271
          45
        -68.49497497
 N         -7.9515082385       -1.4670145783       -1.2516526115
 C         -8.3827235470       -0.0907325807       -0.8762277296
 C         -7.7599687799        0.3630126859        0.4426766850
 C         -6.2912090714        0.5897946559        0.3424280726
 C         -5.6821031107        1.8070884164        0.2159524825
 C         -4.2754627429        1.7415090685        0.1520661179
 C         -3.7744141788        0.4604728474        0.2251127097
 C         -2.3973537502        0.1001285700        0.1990614134
 C         -1.8915584614       -1.1872709909        0.2811682431
 C         -0.4929000982       -1.2738289499        0.2372203127
 C          0.2296178622       -2.5721917482        0.3171033699
 C          0.1265026740       -0.0247431279        0.1154225790
 C          1.5150056747        0.2660835814        0.0415198652
 C          2.0461276229        1.5450732150       -0.0735011274
 C          3.4377646177        1.5857096078       -0.1294333084
 C          4.0501111777        0.3420001475       -0.0610624935
 C          5.4615704162        0.1346530406       -0.1004979909
 C          6.1596682335       -1.0641322844       -0.0388945640
 C          5.5334132033       -2.4079890153        0.0873449990
 C          7.5652304428       -0.8830628127       -0.1064046274
 C          7.9555676129        0.4141707860       -0.2177570797
 S          6.5948094000        1.4515664093       -0.2418391958
 S          2.8233742727       -0.8783478680        0.0766280120
 S         -1.0868859244        1.2187662390        0.0614909527
 S         -5.0986756586       -0.6618070440        0.3558588429
 H         -6.9242966703       -1.5312609049       -1.2096508478
 H         -8.2564097585       -1.7309823354       -2.2019397972
 H         -8.3265171137       -2.1666992791       -0.5926660740
 H         -9.4782847798       -0.0589385802       -0.8208163478
 H         -8.1021585136        0.6111486852       -1.6706620163
 H         -7.9502375115       -0.3900015349        1.2151706942
 H         -8.2399972439        1.2825023303        0.7985128429
 H         -6.2325985591        2.7353762016        0.1772470747
 H         -3.6413103902        2.6106161759        0.0638483279
 H         -2.5288118555       -2.0522195772        0.3757555471
 H          0.8267800280       -2.7383858655       -0.5802271785
 H         -0.4661922069       -3.4061326219        0.4155298619
 H          0.8975595158       -2.5904138481        1.1788931919
 H          1.4253618476        2.4269076013       -0.1156965006
 H          4.0003919079        2.5024425502       -0.2186741298
 H          6.2880376855       -3.1945475991        0.1091730097
 H          4.8687719703       -2.6054626448       -0.7544463500
 H          4.9502378884       -2.4778963008        1.0062872120
 H          8.2602090638       -1.7092275062       -0.0710516434
 H          8.9711999245        0.7588872515       -0.2826826086
