  45

 N          3.4800243033       -0.1076548993        1.3572869222
 C          2.8359330991        0.5421081449        0.1951865589
 C          3.7283442618        1.6506748174       -0.3691035421
 C          4.9239215634        1.1172797922       -1.0845467542
 C          5.2015586580        1.1610897480       -2.4170998464
 C          6.4210778860        0.5469232078       -2.7601768301
 C          7.0934898461        0.0214934661       -1.6873998300
 C          8.3332881249       -0.6760738137       -1.6523441433
 C          8.9902537282       -1.1937008083       -0.5642211376
 C         10.2009780890       -1.8358701959       -0.8730560364
 C         11.0713798640       -2.4671205843        0.1577159794
 C         10.4785919740       -1.8105905108       -2.2272480662
 C         11.5777143224       -2.3469533182       -2.9525705019
 C         11.7965138065       -2.2625834861       -4.3099592638
 C         12.9605141563       -2.9068817595       -4.7377938100
 C         13.6646969545       -3.5030118929       -3.7170377332
 C         14.8730222574       -4.2652624266       -3.7458219478
 C         15.8053266217       -4.4284554114       -4.7487591455
 C         15.7645137818       -3.7837264262       -6.0943549960
 C         16.8584787002       -5.2877405571       -4.3556234852
 C         16.7364810060       -5.7631165690       -3.0908088368
 S         15.3200024782       -5.1754306790       -2.3215355413
 S         12.8611852745       -3.2500236983       -2.1936377757
 S          9.2272091010       -0.9792583666       -3.1196064277
 S          6.2101110108        0.3054760654       -0.2267607198
 H          2.9099250787       -0.8851391894        1.7063885220
 H          3.6207531108        0.5710260638        2.1139487877
 H          4.4067044097       -0.4660560453        1.0832474732
 H          1.8856204743        0.9743309764        0.5053427446
 H          2.6495673626       -0.2032681783       -0.5772099666
 H          4.0493053175        2.3110825277        0.4373879347
 H          3.1502312473        2.2426775322       -1.0774470786
 H          4.5572139421        1.6217314462       -3.1439282421
 H          6.8101778511        0.4835460630       -3.7614201829
 H          8.6125111234       -1.1136224079        0.4403156939
 H         10.6442537263       -2.3253957860        1.1458363509
 H         12.0698452543       -2.0312374737        0.1371170195
 H         11.1796601639       -3.5346219749       -0.0325152359
 H         11.1248545346       -1.7493815770       -4.9767486199
 H         13.2560877794       -2.9477800343       -5.7678943431
 H         15.5629279889       -2.7177455815       -6.0055408990
 H         14.9871979121       -4.2328063718       -6.7122622553
 H         16.7191921443       -3.9201689922       -6.5951104933
 H         17.6802082983       -5.5374100781       -5.0028832580
 H         17.3883514112       -6.4234507572       -2.5559570409
