  45

 N          2.9875500000       -1.2078400000        0.1596300000
 C          2.4927100000        0.1962600000        0.1580000000
 C          3.5892400000        1.1719000000        0.5851700000
 C          4.7568300000        1.1550500000       -0.3539800000
 C          4.9445800000        1.8897400000       -1.5053700000
 C          6.1924000000        1.5969800000       -2.1330700000
 C          6.9413900000        0.6634700000       -1.4388700000
 C          8.2603300000        0.1650000000       -1.7582700000
 C          9.1977200000       -0.3606000000       -0.8947000000
 C         10.4427400000       -0.7094600000       -1.5260500000
 C         11.6107300000       -1.2268800000       -0.7444200000
 C         10.3956700000       -0.4674200000       -2.8950600000
 C         11.4124800000       -0.6703900000       -3.9105900000
 C         11.6175200000        0.0878500000       -5.0494600000
 C         12.6671000000       -0.4177100000       -5.8699000000
 C         13.2949200000       -1.5179600000       -5.3222100000
 C         14.4373200000       -2.2322600000       -5.8614400000
 C         15.5336300000       -1.7123600000       -6.5477500000
 C         15.8265100000       -0.2739200000       -6.8398400000
 C         16.4241100000       -2.7571300000       -6.9776300000
 C         16.0133000000       -4.0072400000       -6.5853200000
 S         14.5527700000       -3.9469700000       -5.7160400000
 S         12.5271600000       -1.9701300000       -3.8568400000
 S          8.8659000000        0.1784600000       -3.3539600000
 S          6.0930800000        0.1299200000       -0.0450100000
 H          2.2564200000       -1.8684800000       -0.1328900000
 H          3.3254400000       -1.4976200000        1.0868000000
 H          3.7780600000       -1.3166500000       -0.4934800000
 H          1.6472000000        0.2283400000        0.8531300000
 H          2.1344300000        0.3978000000       -0.8559200000
 H          3.9150200000        0.9453600000        1.6085500000
 H          3.1702100000        2.1862400000        0.6139800000
 H          4.2392500000        2.6222400000       -1.8844200000
 H          6.5342700000        2.0838500000       -3.0405100000
 H          9.0350000000       -0.4637100000        0.1724400000
 H         11.4004100000       -1.2141300000        0.3302700000
 H         12.4953700000       -0.6044600000       -0.9136600000
 H         11.8354100000       -2.2626600000       -1.0151500000
 H         11.0376700000        0.9675200000       -5.3016400000
 H         12.9522900000        0.0259300000       -6.8158900000
 H         15.1921100000        0.4154500000       -6.2792900000
 H         15.6951400000       -0.0752300000       -7.9086300000
 H         16.8618500000       -0.0382500000       -6.5710300000
 H         17.3326600000       -2.5880500000       -7.5440500000
 H         16.5043900000       -4.9528700000       -6.7695700000
