17

N          1.04809        0.06565       -0.02916
C          2.53087        0.06580       -0.04042
C          3.02983        0.40794       -1.43472
C          4.56300        0.42200       -1.49319
C          5.05556        0.76100       -2.88059
O          6.39712        0.78355       -2.97915
O          4.31400        0.99230       -3.82177
H          0.68013       -0.16245        0.90427
H          0.65929       -0.62583       -0.68540
H          0.66239        0.98383       -0.29073
H          2.84979       -0.93255        0.27283
H          2.85289        0.80370        0.70005
H          2.63840        1.38760       -1.73904
H          2.63792       -0.31957       -2.15793
H          4.95222       -0.56482       -1.22135
H          4.95237        1.17224       -0.79694
H          6.90345        0.58451       -2.16847
