 xtb: 6.5.1 (fef0646)
          01242310123D

 29 29  0     0  0            999 V2000
   -1.7950    1.3060   -0.8903 N   0  0  0  0  0  0  0  0  0  0  0  0
   -2.4418    1.1923    0.4392 C   0  0  0  0  0  0  0  0  0  0  0  0
   -1.6662    2.0284    1.4456 C   0  0  0  0  0  0  0  0  0  0  0  0
   -0.2609    1.8671    1.2737 O   0  0  0  0  0  0  0  0  0  0  0  0
    0.2125    0.5609    1.4160 C   0  0  0  0  0  0  0  0  0  0  0  0
   -0.3408   -0.3789    2.2712 C   0  0  0  0  0  0  0  0  0  0  0  0
    0.1601   -1.6751    2.3427 C   0  0  0  0  0  0  0  0  0  0  0  0
    1.2176   -2.0619    1.5663 C   0  0  0  0  0  0  0  0  0  0  0  0
    1.8276   -1.1491    0.6819 C   0  0  0  0  0  0  0  0  0  0  0  0
    2.9150   -1.5128   -0.1423 C   0  0  0  0  0  0  0  0  0  0  0  0
    3.4780   -0.6044   -0.9931 C   0  0  0  0  0  0  0  0  0  0  0  0
    2.9872    0.7023   -1.0586 C   0  0  0  0  0  0  0  0  0  0  0  0
    1.9360    1.0845   -0.2722 C   0  0  0  0  0  0  0  0  0  0  0  0
    1.3327    0.1738    0.6120 C   0  0  0  0  0  0  0  0  0  0  0  0
   -3.0568   -0.9482   -3.1822 Cl  0  0  0  0  0  0  0  0  0  0  0  0
   -1.8742    2.2688   -1.2629 H   0  0  0  0  0  0  0  0  0  0  0  0
   -2.1868    0.6494   -1.5886 H   0  0  0  0  0  0  0  0  0  0  0  0
   -0.7864    1.1070   -0.7825 H   0  0  0  0  0  0  0  0  0  0  0  0
   -2.4414    0.1405    0.7479 H   0  0  0  0  0  0  0  0  0  0  0  0
   -3.4949    1.4935    0.3914 H   0  0  0  0  0  0  0  0  0  0  0  0
   -1.9351    1.8093    2.4844 H   0  0  0  0  0  0  0  0  0  0  0  0
   -1.8667    3.0943    1.2888 H   0  0  0  0  0  0  0  0  0  0  0  0
   -1.1645   -0.0962    2.9022 H   0  0  0  0  0  0  0  0  0  0  0  0
   -0.2933   -2.3826    3.0190 H   0  0  0  0  0  0  0  0  0  0  0  0
    1.5975   -3.0684    1.6237 H   0  0  0  0  0  0  0  0  0  0  0  0
    3.2942   -2.5199   -0.0919 H   0  0  0  0  0  0  0  0  0  0  0  0
    4.3082   -0.8942   -1.6181 H   0  0  0  0  0  0  0  0  0  0  0  0
    3.4434    1.4119   -1.7307 H   0  0  0  0  0  0  0  0  0  0  0  0
    1.5629    2.0949   -0.3067 H   0  0  0  0  0  0  0  0  0  0  0  0
  1  2  1  0  0  0  0
  2  3  1  0  0  0  0
  3  4  1  0  0  0  0
  4  5  1  0  0  0  0
  5  6  4  0  0  0  0
  6  7  4  0  0  0  0
  7  8  2  0  0  0  0
  8  9  4  0  0  0  0
  9 10  4  0  0  0  0
 10 11  2  0  0  0  0
 11 12  4  0  0  0  0
 12 13  2  0  0  0  0
  5 14  4  0  0  0  0
  9 14  4  0  0  0  0
 13 14  4  0  0  0  0
  1 16  1  0  0  0  0
  1 17  1  0  0  0  0
  1 18  1  0  0  0  0
  2 19  1  0  0  0  0
  2 20  1  0  0  0  0
  3 21  1  0  0  0  0
  3 22  1  0  0  0  0
  6 23  1  0  0  0  0
  7 24  1  0  0  0  0
  8 25  1  0  0  0  0
 10 26  1  0  0  0  0
 11 27  1  0  0  0  0
 12 28  1  0  0  0  0
 13 29  1  0  0  0  0
M  END
