 xtb: 6.5.1 (fef0646)
          01242314573D

 25 25  0     0  0            999 V2000
    2.8365   -1.3594   -1.8694 N   0  0  0  0  0  0  0  0  0  0  0  0
    2.4454   -0.4700   -0.7492 C   0  0  0  0  0  0  0  0  0  0  0  0
    2.9525   -1.0455    0.5727 C   0  0  0  0  0  0  0  0  0  0  0  0
    4.4585   -1.0706    0.6180 C   0  0  0  0  0  0  0  0  0  0  0  0
    5.1746    0.0955    0.8489 C   0  0  0  0  0  0  0  0  0  0  0  0
    6.5584    0.0983    0.8804 C   0  0  0  0  0  0  0  0  0  0  0  0
    7.2564   -1.0880    0.6804 C   0  0  0  0  0  0  0  0  0  0  0  0
    8.6176   -1.2122    0.6975 O   0  0  0  0  0  0  0  0  0  0  0  0
    9.3992   -0.0664    0.9621 C   0  0  0  0  0  0  0  0  0  0  0  0
    6.5453   -2.2647    0.4433 C   0  0  0  0  0  0  0  0  0  0  0  0
    5.1662   -2.2512    0.4105 C   0  0  0  0  0  0  0  0  0  0  0  0
    2.5874   -0.9465   -2.7748 H   0  0  0  0  0  0  0  0  0  0  0  0
    2.3714   -2.2703   -1.7802 H   0  0  0  0  0  0  0  0  0  0  0  0
    3.8523   -1.5142   -1.8373 H   0  0  0  0  0  0  0  0  0  0  0  0
    1.3606   -0.3774   -0.7235 H   0  0  0  0  0  0  0  0  0  0  0  0
    2.8821    0.5154   -0.9089 H   0  0  0  0  0  0  0  0  0  0  0  0
    2.5630   -2.0526    0.7187 H   0  0  0  0  0  0  0  0  0  0  0  0
    2.5790   -0.4239    1.3856 H   0  0  0  0  0  0  0  0  0  0  0  0
    4.6508    1.0238    1.0214 H   0  0  0  0  0  0  0  0  0  0  0  0
    7.0810    1.0218    1.0710 H   0  0  0  0  0  0  0  0  0  0  0  0
   10.4317   -0.4087    0.9456 H   0  0  0  0  0  0  0  0  0  0  0  0
    9.1711    0.3514    1.9467 H   0  0  0  0  0  0  0  0  0  0  0  0
    9.2569    0.6976    0.1927 H   0  0  0  0  0  0  0  0  0  0  0  0
    7.1035   -3.1759    0.2975 H   0  0  0  0  0  0  0  0  0  0  0  0
    4.6421   -3.1811    0.2492 H   0  0  0  0  0  0  0  0  0  0  0  0
  1  2  1  0  0  0  0
  2  3  1  0  0  0  0
  3  4  1  0  0  0  0
  4  5  4  0  0  0  0
  5  6  4  0  0  0  0
  6  7  4  0  0  0  0
  7  8  1  0  0  0  0
  8  9  1  0  0  0  0
  7 10  4  0  0  0  0
  4 11  4  0  0  0  0
 10 11  4  0  0  0  0
  1 12  1  0  0  0  0
  1 13  1  0  0  0  0
  1 14  1  0  0  0  0
  2 15  1  0  0  0  0
  2 16  1  0  0  0  0
  3 17  1  0  0  0  0
  3 18  1  0  0  0  0
  5 19  1  0  0  0  0
  6 20  1  0  0  0  0
  9 21  1  0  0  0  0
  9 22  1  0  0  0  0
  9 23  1  0  0  0  0
 10 24  1  0  0  0  0
 11 25  1  0  0  0  0
M  CHG  1   1   1
M  END
