22
 xtb: 6.5.1 (fef0646)
N           -4.26670701168602       -1.30969587474669        1.04006021916575
C           -4.55714088234626        0.10123894549754        0.66385724594083
C           -3.85116260498482        0.49325065008102       -0.63253131234169
C           -2.35978965939952        0.38602960168413       -0.51174959618475
C           -1.64018987242428        1.36101408727229        0.16992983881333
C           -0.27397353374638        1.25140151568148        0.31990134989881
C            0.39456071562118        0.16012712789490       -0.20748720722420
Cl           2.09770297902596        0.02096919780411       -0.02267956450937
C           -0.31189202593475       -0.82163414318487       -0.88240722448285
C           -1.67871820689498       -0.70946897343233       -1.02874636309223
Cl           5.43341130825554       -0.21682724856567        0.28647410145092
H           -3.27665919307562       -1.48238469445227        1.11879862513138
H           -4.66112644285669       -1.96220134968145        0.33244635238840
H           -4.72391794769225       -1.56124595358534        1.94712424681414
H           -4.23124180825056        0.75984287289177        1.47520089683086
H           -5.63724409815078        0.25954510205280        0.56572739382027
H           -4.10174845743738        1.51122928536956       -0.92202914482752
H           -4.18037107336117       -0.15024906957338       -1.44641815362861
H           -2.14926011883977        2.20744750505787        0.58339108068943
H            0.30129776144730        2.01042332985675        0.83917996112981
H            0.23327473130852       -1.66623117976018       -1.28284805644534
H           -2.21604743635153       -1.47601317097726       -1.54311067628370
