24
0.0
N           -1.66250   1.53690   0.73525
C           -2.64773   0.64348   0.06219
C           -2.27399  -0.83684   0.14591
C           -1.11583  -1.25172  -0.77578
C            0.21368  -0.65523  -0.41734
C            0.79757   0.33922  -1.21313
C            2.01548   0.91147  -0.85729
C            2.67376   0.49048   0.29269
C            2.11341  -0.50462   1.08583
C            0.89192  -1.07203   0.73371
H           -1.90380   2.53388   0.62291
H           -0.72225   1.39085   0.34336
H           -1.61215   1.34050   1.74613
H           -2.75341   0.93818  -0.98864
H           -3.63381   0.81291   0.51480
H           -3.15612  -1.44782  -0.08788
H           -2.02030  -1.08238   1.18285
H           -1.36199  -0.98840  -1.81019
H           -1.01050  -2.34347  -0.77751
H            0.30106   0.65508  -2.11557
H            2.45852   1.67023  -1.48341
H            3.62451   0.92460   0.56130
H            2.63079  -0.84363   1.96973
H            0.46557  -1.85015   1.34462
