11

N          1.05086       -0.05238       -0.05193
C          2.54170       -0.04574       -0.12151
C          3.03167       -1.45617       -0.40478
F          2.39687       -2.28410        0.47207
H          0.67244        0.85064        0.26322
H          0.74762       -0.77390        0.62234
H          0.61775       -0.28837       -0.95454
H          2.88323        0.29321        0.86170
H          2.84081        0.66901       -0.89140
H          4.11165       -1.54752       -0.26336
H          2.76826       -1.77597       -1.41659
