 xtb: 6.5.1 (fef0646)
          01232313503D

 22 21  0     0  0            999 V2000
    1.3048   -0.3043    0.4101 N   0  0  0  0  0  0  0  0  0  0  0  0
    2.7380   -0.2323    0.1534 C   0  0  0  0  0  0  0  0  0  0  0  0
    3.0500    1.0701   -0.5999 C   0  0  0  0  0  0  0  0  0  0  0  0
    4.5178    1.2009   -0.8716 C   0  0  0  0  0  0  0  0  0  0  0  0
    5.1265    0.4880   -1.9010 C   0  0  0  0  0  0  0  0  0  0  0  0
    4.3803   -0.3150   -2.6638 F   0  0  0  0  0  0  0  0  0  0  0  0
    6.4893    0.5857   -2.1601 C   0  0  0  0  0  0  0  0  0  0  0  0
    7.0390   -0.1116   -3.1550 F   0  0  0  0  0  0  0  0  0  0  0  0
    7.2823    1.4147   -1.3715 C   0  0  0  0  0  0  0  0  0  0  0  0
    8.5895    1.5160   -1.6084 F   0  0  0  0  0  0  0  0  0  0  0  0
    6.7011    2.1335   -0.3319 C   0  0  0  0  0  0  0  0  0  0  0  0
    7.4520    2.9268    0.4338 F   0  0  0  0  0  0  0  0  0  0  0  0
    5.3355    2.0147   -0.0947 C   0  0  0  0  0  0  0  0  0  0  0  0
    4.7953    2.7082    0.9148 F   0  0  0  0  0  0  0  0  0  0  0  0
   -0.1499    0.1513   -2.1310 Cl  0  0  0  0  0  0  0  0  0  0  0  0
    1.0467   -1.2037    0.7992 H   0  0  0  0  0  0  0  0  0  0  0  0
    0.5027   -0.0829   -0.9667 H   0  0  0  0  0  0  0  0  0  0  0  0
    1.0138    0.4251    1.0526 H   0  0  0  0  0  0  0  0  0  0  0  0
    3.0084   -1.0864   -0.4706 H   0  0  0  0  0  0  0  0  0  0  0  0
    3.3347   -0.2724    1.0764 H   0  0  0  0  0  0  0  0  0  0  0  0
    2.7130    1.9190   -0.0046 H   0  0  0  0  0  0  0  0  0  0  0  0
    2.4980    1.0585   -1.5403 H   0  0  0  0  0  0  0  0  0  0  0  0
  1  2  1  0  0  0  0
  2  3  1  0  0  0  0
  3  4  1  0  0  0  0
  4  5  4  0  0  0  0
  5  6  1  0  0  0  0
  5  7  4  0  0  0  0
  7  8  1  0  0  0  0
  7  9  4  0  0  0  0
  9 10  1  0  0  0  0
  9 11  4  0  0  0  0
 11 12  1  0  0  0  0
  4 13  4  0  0  0  0
 11 13  4  0  0  0  0
 13 14  1  0  0  0  0
  1 16  1  0  0  0  0
 15 17  1  0  0  0  0
  1 18  1  0  0  0  0
  2 19  1  0  0  0  0
  2 20  1  0  0  0  0
  3 21  1  0  0  0  0
  3 22  1  0  0  0  0
M  END
