18
 xtb: 6.5.1 (fef0646)
N           -0.22178817521421       -0.37430649503176        0.66745293700892
C            0.59497338477985       -0.75617700582791       -0.52647952371444
C            2.06060651872287       -1.09183957255995       -0.20928224589272
C            3.03285351215280        0.07937551135418       -0.39684806295100
C            2.78478244566035        1.24377351007978        0.54946728567675
Cl          -3.24859519001736        0.33748084452782       -0.09217451947217
H           -0.15078681042881       -1.16551287291329        1.38662773859028
H           -1.13330686811792       -0.16418476063426        0.47984657364162
H            0.26481141110213        0.42343386688750        1.17602546277913
H            0.57203437546860        0.03062457410745       -1.26111324387413
H            0.13600563223699       -1.63201037425251       -0.98523322066664
H            2.42959684281102       -1.92912175181400       -0.86520451491216
H            2.18354566801935       -1.48648810762588        0.80034790972198
H            3.00247922365641        0.43699993289994       -1.43999639229731
H            4.09352901848180       -0.26237889858604       -0.27771324995937
H            1.82316870718361        1.69927621475636        0.36254159188123
H            3.54449842503568        2.03010593006778        0.44980324414555
H            2.80735009749607        0.90880928836757        1.58862444374995
