  17

 N         -4.6883071978        0.0666401693        0.0021179022
 C         -3.3391695752       -0.5798136961       -0.0018033851
 C         -2.1935150969        0.4290705363       -0.0000168246
 C         -0.8048501605       -0.2271291352       -0.0013038135
 C          0.3357453558        0.7777153903       -0.0017270613
 Br         2.0590114118       -0.0913696540       -0.0012965100
 H         -5.4335489761       -0.6349406603        0.0003703565
 H         -4.8067761844        0.6589222954       -0.8239479964
 H         -4.8049176986        0.6527586595        0.8328402486
 H         -3.2565113336       -1.2333477218       -0.8783609757
 H         -3.2542621858       -1.2389170609        0.8703402229
 H         -2.2878019145        1.0854733904        0.8717507567
 H         -2.2879171943        1.0886699267       -0.8693582973
 H         -0.7117451748       -0.8874137918       -0.8736767109
 H         -0.7104772411       -0.8881272165        0.8704074226
 H          0.2954740835        1.4249672840        0.8774641731
 H          0.2955055084        1.4242007435       -0.8815102791
          17
        -20.85396536
 N         -3.9163024918       -0.8645364616        0.1634382492
 C         -3.0131777761        0.1994355224       -0.3742064089
 C         -1.6337771613        0.1935979614        0.2807479591
 C         -0.6989931337        1.2834933029       -0.2626135645
 C          0.6832065877        1.2670678833        0.3737884825
 Br         1.6594510199       -0.3449267435       -0.0405071347
 H         -4.0601837088       -0.7395955798        1.1686874115
 H         -3.5103693380       -1.7916500224        0.0133669041
 H         -4.8313273500       -0.8392964646       -0.2944097170
 H         -3.4865199204        1.1785637130       -0.2338822489
 H         -2.9104931841        0.0697767954       -1.4583372230
 H         -1.1730120313       -0.7914968777        0.1453317316
 H         -1.7460929412        0.3121644968        1.3642096022
 H         -1.1665967473        2.2661213693       -0.1136765995
 H         -0.6010540774        1.1716335021       -1.3505706530
 H          0.6198763189        1.3426813318        1.4619494831
 H          1.2980458018        2.1020916754        0.0262320553
