  17

 N          0.9617900000        0.0356300000       -0.0833500000
 C          2.4444300000        0.0368300000       -0.0777400000
 C          2.9510000000       -0.7622700000       -1.2711100000
 C          4.4798700000       -0.7856400000       -1.3055600000
 C          4.9980700000       -1.5832200000       -2.4929200000
 Br         6.9409200000       -1.5738200000       -2.4786900000
 H          0.5902200000        0.5696200000        0.7141500000
 H          0.5792800000       -0.9170900000       -0.0142400000
 H          0.5814200000        0.4640300000       -0.9379100000
 H          2.7584300000       -0.4036800000        0.8730800000
 H          2.7608400000        1.0832300000       -0.1213400000
 H          2.5697000000       -0.3235900000       -2.2015000000
 H          2.5693800000       -1.7894700000       -1.2196900000
 H          4.8590600000       -1.2182100000       -0.3708600000
 H          4.8591300000        0.2431400000       -1.3523600000
 H          4.6864100000       -1.1470800000       -3.4458300000
 H          4.6863700000       -2.6302900000       -2.4494900000
