  17

 N          1.0249665797       -0.0380831408       -0.0919143190
 C          2.5071196379       -0.0402734409       -0.0724902644
 C          3.0250146436       -0.3693356817        1.3247082896
 C          4.5554688847       -0.3738815193        1.3358028121
 C          5.0732455681       -0.6973000521        2.7261526077
 Br         7.0745492255       -0.7137794324        2.7685344475
 H          0.6757683574        0.1841141038       -1.0313694196
 H          0.6611897559        0.6603896466        0.5673093694
 H          0.6636476149       -0.9593982458        0.1828812208
 H          2.8712952970        0.9406536337       -0.3772853866
 H          2.8742076744       -0.7801503729       -0.7835056261
 H          2.6709321620       -1.3516396172        1.6385837140
 H          2.6725583044        0.3709029193        2.0435007591
 H          4.9381411376        0.6013517852        1.0306927380
 H          4.9356255275       -1.1161044280        0.6320570212
 H          4.7720436529       -1.6889393413        3.0588293224
 H          4.7778359765        0.0494331837        3.4609227138
