  22

 N          1.2347800000       -0.3224900000       -0.0256800000
 C          2.6967800000       -0.2438000000       -0.0123700000
 C          3.1556300000        1.1103700000        0.5262400000
 C          4.6549600000        1.2334500000        0.5733100000
 C          5.3731900000        1.7244100000       -0.5216500000
 F          4.7162000000        2.0449400000       -1.6449000000
 C          6.7574100000        1.8672500000       -0.4690000000
 F          7.4223300000        2.3342900000       -1.5342600000
 C          7.4467500000        1.5093400000        0.6817600000
 F          8.7795800000        1.6366200000        0.7317700000
 C          6.7560500000        0.9990400000        1.7709500000
 F          7.4193200000        0.6283400000        2.8750200000
 C          5.3717900000        0.8582500000        1.7127200000
 F          4.7141700000        0.3363200000        2.7575600000
 Cl        -0.5717400000        1.6732600000        0.7795600000
 H          0.7930500000       -1.1700900000       -0.3826600000
 H          0.7750500000        0.4874500000       -0.5022000000
 H          0.7939500000       -0.1082500000        0.8987300000
 H          3.0339800000       -0.4058700000       -1.0407900000
 H          3.0540100000       -1.0702100000        0.6098700000
 H          2.7534100000        1.2722300000        1.5343900000
 H          2.7495300000        1.9211800000       -0.0913500000
