15

N          1.10408       -0.23435        0.21618
C          2.55600       -0.27505        0.39616
C          3.04398        1.07608        0.90370
C          4.55357        1.08556        1.07622
Cl         0.35956        1.22471       -2.15786
H          0.69603       -1.10257       -0.14088
H          0.87946        0.42915       -0.58800
H          0.55199        0.12472        0.99479
H          2.99746       -0.53061       -0.57244
H          2.77061       -1.07284        1.11110
H          2.56973        1.30598        1.86528
H          2.76156        1.87351        0.20733
H          4.87504        0.30697        1.77507
H          4.88332        2.05290        1.46807
H          5.05715        0.91807        0.11817
