39
 xtb: 6.5.1 (fef0646)
N           -5.85669861780270       -3.16516784623215       -0.37217496540063
C           -6.85024686298749       -2.32780608047657        0.36022862067588
C           -7.04695802940812       -0.94209816147978       -0.25918347321956
C           -5.87114405114861       -0.03820965682662       -0.12719795042757
C           -5.92003033641432        1.32166906197468       -0.00505312139723
C           -4.65741245785472        1.94263194208230        0.08254187857583
C           -3.59550768345693        1.06570607983447        0.02611787214489
C           -2.21368306185278        1.39234066447377        0.08524523115210
C           -1.66690055690047        2.65990014897179        0.22418068561447
C           -0.27628221168593        2.68064955335859        0.25248555160426
C            0.31312023599921        1.42840844880253        0.13478869576609
C            1.69877668763009        1.14292139126207        0.13056468648577
C            2.73519102936736        2.05832939629428        0.26572643633168
C            4.00381942852588        1.48962000481446        0.22066864561912
C            4.00383576637494        0.11417298024602        0.04702015051857
C            5.15506204315301       -0.71324750900950       -0.04177640855664
C            5.16010907785276       -2.07558058119856       -0.24633611536717
C            6.45043793822018       -2.63762230205062       -0.29032602048128
C            7.44693063278848       -1.72747232960767       -0.11993972983223
S            6.80240952080434       -0.15199310353146        0.12587093752396
S            2.36637521627594       -0.45406601954438       -0.06253476289775
S           -0.93202868609151        0.22090732498697       -0.00698140258438
S           -4.21996857536199       -0.55213929921054       -0.13080761756818
H           -6.16386828705272       -3.29693395115771       -1.36801628413236
H           -5.74451867485555       -4.09478712301078        0.03395574711785
H           -4.94236127156280       -2.70754255878631       -0.41400321361629
H           -6.49722994470605       -2.21197664474307        1.39342237753445
H           -7.79307666407338       -2.86283579928744        0.41539011482226
H           -7.91647334256883       -0.45652246436693        0.19068733254977
H           -7.28648783956426       -1.05314587685527       -1.32511897583998
H           -6.84947890084777        1.87100559816591        0.02929623021356
H           -4.53541283054277        3.00877494849594        0.19883447616130
H           -2.26846271159368        3.55036059249929        0.32135791074298
H            0.29452498418580        3.58783059646126        0.37152826581179
H            2.57068359953987        3.11714673023989        0.38223342074696
H            4.91428647157106        2.06219988925172        0.29593419745576
H            4.25327580874550       -2.65881960710716       -0.30173479276909
H            6.62736526303076       -3.69907302309350       -0.39008867551886
H            8.49736405032633       -1.94571904747998       -0.13023341146833
