 xtb: 6.5.1 (fef0646)
          01242317063D

 39 42  0     0  0            999 V2000
   -5.8620   -3.1678   -0.4025 N   0  0  0  0  0  0  0  0  0  0  0  0
   -6.8329   -2.3265    0.3571 C   0  0  0  0  0  0  0  0  0  0  0  0
   -7.0453   -0.9439   -0.2648 C   0  0  0  0  0  0  0  0  0  0  0  0
   -5.8721   -0.0363   -0.1314 C   0  0  0  0  0  0  0  0  0  0  0  0
   -5.9214    1.3221    0.0044 C   0  0  0  0  0  0  0  0  0  0  0  0
   -4.6587    1.9426    0.0967 C   0  0  0  0  0  0  0  0  0  0  0  0
   -3.5962    1.0672    0.0303 C   0  0  0  0  0  0  0  0  0  0  0  0
   -2.2143    1.3929    0.0923 C   0  0  0  0  0  0  0  0  0  0  0  0
   -1.6672    2.6591    0.2416 C   0  0  0  0  0  0  0  0  0  0  0  0
   -0.2765    2.6794    0.2692 C   0  0  0  0  0  0  0  0  0  0  0  0
    0.3127    1.4281    0.1412 C   0  0  0  0  0  0  0  0  0  0  0  0
    1.6984    1.1428    0.1322 C   0  0  0  0  0  0  0  0  0  0  0  0
    2.7352    2.0593    0.2562 C   0  0  0  0  0  0  0  0  0  0  0  0
    4.0037    1.4905    0.2095 C   0  0  0  0  0  0  0  0  0  0  0  0
    4.0033    0.1137    0.0475 C   0  0  0  0  0  0  0  0  0  0  0  0
    5.1543   -0.7147   -0.0345 C   0  0  0  0  0  0  0  0  0  0  0  0
    5.1585   -2.0821   -0.1962 C   0  0  0  0  0  0  0  0  0  0  0  0
    6.4488   -2.6438   -0.2458 C   0  0  0  0  0  0  0  0  0  0  0  0
    7.4461   -1.7281   -0.1243 C   0  0  0  0  0  0  0  0  0  0  0  0
    6.8026   -0.1452    0.0550 S   0  0  0  0  0  0  0  0  0  0  0  0
    2.3650   -0.4565   -0.0426 S   0  0  0  0  0  0  0  0  0  0  0  0
   -0.9332    0.2229   -0.0122 S   0  0  0  0  0  0  0  0  0  0  0  0
   -4.2203   -0.5480   -0.1461 S   0  0  0  0  0  0  0  0  0  0  0  0
   -6.1952   -3.3383   -1.3584 H   0  0  0  0  0  0  0  0  0  0  0  0
   -5.7065   -4.0765    0.0502 H   0  0  0  0  0  0  0  0  0  0  0  0
   -4.9584   -2.6871   -0.4702 H   0  0  0  0  0  0  0  0  0  0  0  0
   -6.4826   -2.2084    1.3888 H   0  0  0  0  0  0  0  0  0  0  0  0
   -7.7870   -2.8630    0.4250 H   0  0  0  0  0  0  0  0  0  0  0  0
   -7.9164   -0.4583    0.1895 H   0  0  0  0  0  0  0  0  0  0  0  0
   -7.2862   -1.0540   -1.3266 H   0  0  0  0  0  0  0  0  0  0  0  0
   -6.8499    1.8710    0.0339 H   0  0  0  0  0  0  0  0  0  0  0  0
   -4.5359    3.0085    0.2061 H   0  0  0  0  0  0  0  0  0  0  0  0
   -2.2685    3.5499    0.3288 H   0  0  0  0  0  0  0  0  0  0  0  0
    0.2945    3.5872    0.3788 H   0  0  0  0  0  0  0  0  0  0  0  0
    2.5708    3.1177    0.3774 H   0  0  0  0  0  0  0  0  0  0  0  0
    4.9143    2.0627    0.2905 H   0  0  0  0  0  0  0  0  0  0  0  0
    4.2526   -2.6618   -0.2774 H   0  0  0  0  0  0  0  0  0  0  0  0
    6.6267   -3.7019   -0.3690 H   0  0  0  0  0  0  0  0  0  0  0  0
    8.4972   -1.9454   -0.1367 H   0  0  0  0  0  0  0  0  0  0  0  0
  1  2  1  0  0  0  0
  2  3  1  0  0  0  0
  3  4  1  0  0  0  0
  4  5  2  0  0  0  0
  5  6  4  0  0  0  0
  6  7  4  0  0  0  0
  7  8  1  0  0  0  0
  8  9  4  0  0  0  0
  9 10  4  0  0  0  0
 10 11  4  0  0  0  0
 11 12  4  0  0  0  0
 12 13  4  0  0  0  0
 13 14  4  0  0  0  0
 14 15  4  0  0  0  0
 15 16  1  0  0  0  0
 16 17  4  0  0  0  0
 17 18  4  0  0  0  0
 18 19  2  0  0  0  0
 16 20  1  0  0  0  0
 19 20  1  0  0  0  0
 12 21  1  0  0  0  0
 15 21  1  0  0  0  0
  8 22  1  0  0  0  0
 11 22  1  0  0  0  0
  4 23  1  0  0  0  0
  7 23  1  0  0  0  0
  1 24  1  0  0  0  0
  1 25  1  0  0  0  0
  1 26  1  0  0  0  0
  2 27  1  0  0  0  0
  2 28  1  0  0  0  0
  3 29  1  0  0  0  0
  3 30  1  0  0  0  0
  5 31  1  0  0  0  0
  6 32  1  0  0  0  0
  9 33  1  0  0  0  0
 10 34  1  0  0  0  0
 13 35  1  0  0  0  0
 14 36  1  0  0  0  0
 17 37  1  0  0  0  0
 18 38  1  0  0  0  0
 19 39  1  0  0  0  0
M  CHG  1   1   1
M  END
