  17

 N         -2.4644938394        0.3152970106        0.0001635879
 C         -1.2232024852       -0.5140684998       -0.0001802242
 C          0.0526449979        0.3234275412       -0.0002666467
 C          1.3371074013       -0.5134562108        0.0001933088
 C          2.6083452225        0.3257585925        0.0000399845
 H         -3.3134902598       -0.2694412417        0.0000843456
 H         -2.5077597171        0.9227523847       -0.8306193953
 H         -2.5076037165        0.9223127287        0.8312830169
 H         -1.2334860585       -1.1768691824       -0.8743513328
 H         -1.2332037071       -1.1770774822        0.8738276657
 H          0.0484769343        0.9901295601        0.8696753770
 H          0.0487244832        0.9896032087       -0.8706235780
 H          1.3336595498       -1.1817376139       -0.8703608309
 H          1.3334555612       -1.1811048807        0.8712450062
 H          2.6589795256        0.9709497236       -0.8793955273
 H          3.5077031768       -0.2952509511        0.0003500156
 H          2.6587911276        0.9715586184        0.8790362338
          17
        -17.16744113
 N         -1.8715101324       -0.5928167351       -0.3093112269
 C         -1.0666349876        0.2152738509        0.6527499065
 C          0.0536332955        1.0163036552       -0.0098033020
 C          1.1615846778        0.1673957244       -0.6464132940
 C          1.9806647870       -0.6399200651        0.3520951066
 H         -2.2823660985        0.0033660014       -1.0421141009
 H         -2.6502936309       -1.0764391591        0.1624854703
 H         -1.3041224712       -1.3145435963       -0.7758177506
 H         -0.6551766983       -0.4449130273        1.4250259399
 H         -1.7455641730        0.8952510393        1.1856044139
 H          0.5056276219        1.6962249344        0.7235760448
 H         -0.3901237355        1.6709776645       -0.7705442515
 H          1.8363058307        0.8215050278       -1.2164296200
 H          0.7241975552       -0.5019885218       -1.3968712976
 H          2.4417852107        0.0063115493        1.1018316363
 H          2.7864618738       -1.1937252399       -0.1365405230
 H          1.3675439157       -1.3692311644        0.8837107398
