25
 xtb: 6.5.1 (fef0646)
N           -1.02987252866599        0.70239816870694       -0.10857640894332
C           -0.61334563262345       -0.68061028787212        0.24443664533671
C            0.90633515139050       -0.86393916155517        0.14583327049508
C            1.67142105946525        0.05033948476526        1.13104061565671
C            3.18583884616003       -0.20835174778186        1.06067604390123
C            3.71095486693397       -0.01423846438048       -0.37306745322786
C            2.94490302047192       -0.89941136074570       -1.37280777295626
C            1.43131609615040       -0.63771382171589       -1.29111104901290
Cl          -4.80710978392635        0.93857672892684        0.24241910818048
H           -0.67412328547145        1.39724025562356        0.52620221387503
H           -2.12067804971023        0.78433712201411       -0.01791076063175
H           -0.83854208193716        0.94275065136367       -1.06711584554340
H           -1.13745429594895       -1.40387567271973       -0.41027054304412
H           -0.97079236544919       -0.92732034762406        1.26371921358051
H            1.13025883397681       -1.89502723769355        0.41660410096511
H            1.26542650184515       -0.07037307747668        2.15043546556976
H            1.45353049888780        1.10542234417385        0.87203293226718
H            3.37075824670422       -1.22894761623512        1.39001699175624
H            3.70389545798359        0.44429806404969        1.76668727766397
H            4.77023806367603       -0.21612657083621       -0.42054967433748
H            3.58303676638675        1.04282037195792       -0.66041762159352
H            3.11938780229759       -1.94994151847298       -1.14968538644552
H            3.29156815415863       -0.73719433244038       -2.39546867712610
H            0.85362575936097       -1.25077441679000       -2.00442753524092
H            1.20950258748859        0.40746837951803       -1.58493120523682
