27
 xtb: 6.5.1 (fef0646)
N           -4.13672547413678        0.33199900914887       -0.68452796288219
C           -3.22833450183590       -0.05035194903787        0.43869375036247
C           -1.76493712173168       -0.26563694498198        0.01662843971415
C           -0.94207637446457       -0.93096343247593        1.15067010132910
C            0.52175648416405       -1.15758820413868        0.73542225665207
C            1.18760043969739        0.16275238326801        0.29038201044366
C            2.64950887450452       -0.03642897159749       -0.05471799254931
O            3.30862238463025        1.06675366922061       -0.46103443509054
O            3.18604851809759       -1.12172241496555        0.10195342174683
C            0.38611913467608        0.81593485074049       -0.84941040403205
C           -1.07992259887413        1.04777505985821       -0.43674525982470
H           -3.85143480716513        1.20601302749088       -1.13459899400128
H           -5.09455474169658        0.36782663528989       -0.43436147475814
H           -4.05642587434770       -0.40673396878638       -1.47042067309591
H           -3.61182671328397       -0.97751943063172        0.88128869013503
H           -3.29747649677413        0.71269370355078        1.19163499369902
H           -1.72827804308866       -0.96061885806811       -0.82275669181599
H           -1.41199335016720       -1.85010630711923        1.49427438040912
H           -0.99463174206076       -0.25242002184895        2.05884425104408
H            0.59149603518171       -1.86077756385215       -0.02592975104470
H            1.09789438191184       -1.57337569180830        1.61547086167744
H            1.20207279236555        0.88036564504780        1.17976905125237
H            4.23391390293383        0.83460668144970       -0.63265559726718
H            0.45041046087826        0.16940054619964       -1.69464806419239
H            0.87611812993134        1.76221215963891       -1.12324297932368
H           -1.62808098936298        1.50163577868753       -1.25504262620171
H           -1.12809198397278        1.77744171256270        0.39379175745131
