26

N          2.72138        0.77733        1.82385
C          2.52410        0.19135        0.48919
C          3.03268       -1.24790        0.44627
C          4.53592       -1.33074        0.53889
C          5.17106       -1.54403        1.76951
C          6.56662       -1.58341        1.85567
C          7.34433       -1.42297        0.70883
O          8.70862       -1.44126        0.64782
C          9.40189       -1.70280        1.86176
C          6.71261       -1.21783       -0.51949
C          5.32218       -1.17277       -0.60903
Cl         0.26005        0.55472        3.26064
H          2.25782        1.69327        1.91366
H          3.67159        0.82117        2.18659
H          2.10905        0.27331        2.51831
H          3.03997        0.84220       -0.22197
H          1.45069        0.22514        0.28267
H          2.71147       -1.71036       -0.49567
H          2.57472       -1.84634        1.24415
H          4.58503       -1.69394        2.67550
H          7.01540       -1.75214        2.82936
H         10.47298       -1.71056        1.63958
H          9.13737       -2.68613        2.26428
H          9.21906       -0.91137        2.59572
H          7.31439       -1.10588       -1.41863
H          4.86441       -1.01997       -1.58155
