 xtb: 6.5.1 (fef0646)
          01242310113D

 41 40  0     0  0            999 V2000
   -2.4076   -2.1347    0.1203 N   0  0  0  0  0  0  0  0  0  0  0  0
   -3.7408   -1.6932   -0.3800 C   0  0  0  0  0  0  0  0  0  0  0  0
   -4.2480   -0.4145    0.2954 C   0  0  0  0  0  0  0  0  0  0  0  0
   -3.8949    0.8779   -0.4487 C   0  0  0  0  0  0  0  0  0  0  0  0
   -2.4015    1.2082   -0.5233 C   0  0  0  0  0  0  0  0  0  0  0  0
   -1.7521    1.4383    0.8436 C   0  0  0  0  0  0  0  0  0  0  0  0
   -0.3351    2.0148    0.7641 C   0  0  0  0  0  0  0  0  0  0  0  0
    0.6900    1.0801    0.1191 C   0  0  0  0  0  0  0  0  0  0  0  0
    2.0898    1.6952    0.0584 C   0  0  0  0  0  0  0  0  0  0  0  0
    3.1301    0.8189   -0.6461 C   0  0  0  0  0  0  0  0  0  0  0  0
    3.4888   -0.4565    0.1184 C   0  0  0  0  0  0  0  0  0  0  0  0
    4.5882   -1.2733   -0.5645 C   0  0  0  0  0  0  0  0  0  0  0  0
    4.9608   -2.5320    0.2033 C   0  0  0  0  0  0  0  0  0  0  0  0
   -2.4364   -2.3107    1.1363 H   0  0  0  0  0  0  0  0  0  0  0  0
   -1.6781   -1.4276   -0.0505 H   0  0  0  0  0  0  0  0  0  0  0  0
   -2.1017   -3.0096   -0.3340 H   0  0  0  0  0  0  0  0  0  0  0  0
   -4.4526   -2.5139   -0.2180 H   0  0  0  0  0  0  0  0  0  0  0  0
   -3.7058   -1.5544   -1.4671 H   0  0  0  0  0  0  0  0  0  0  0  0
   -3.8654   -0.3725    1.3208 H   0  0  0  0  0  0  0  0  0  0  0  0
   -5.3395   -0.4709    0.4070 H   0  0  0  0  0  0  0  0  0  0  0  0
   -4.4138    1.7216    0.0238 H   0  0  0  0  0  0  0  0  0  0  0  0
   -4.3100    0.8241   -1.4630 H   0  0  0  0  0  0  0  0  0  0  0  0
   -2.2590    2.1087   -1.1341 H   0  0  0  0  0  0  0  0  0  0  0  0
   -1.8724    0.4185   -1.0664 H   0  0  0  0  0  0  0  0  0  0  0  0
   -1.7352    0.5025    1.4127 H   0  0  0  0  0  0  0  0  0  0  0  0
   -2.3901    2.1147    1.4262 H   0  0  0  0  0  0  0  0  0  0  0  0
    0.0140    2.2847    1.7686 H   0  0  0  0  0  0  0  0  0  0  0  0
   -0.3603    2.9601    0.2095 H   0  0  0  0  0  0  0  0  0  0  0  0
    0.3668    0.8154   -0.8937 H   0  0  0  0  0  0  0  0  0  0  0  0
    0.7192    0.1333    0.6696 H   0  0  0  0  0  0  0  0  0  0  0  0
    2.4327    1.9237    1.0742 H   0  0  0  0  0  0  0  0  0  0  0  0
    2.0246    2.6680   -0.4451 H   0  0  0  0  0  0  0  0  0  0  0  0
    4.0471    1.3972   -0.8151 H   0  0  0  0  0  0  0  0  0  0  0  0
    2.7704    0.5565   -1.6477 H   0  0  0  0  0  0  0  0  0  0  0  0
    2.5971   -1.0799    0.2467 H   0  0  0  0  0  0  0  0  0  0  0  0
    3.8055   -0.1967    1.1352 H   0  0  0  0  0  0  0  0  0  0  0  0
    5.4757   -0.6423   -0.7006 H   0  0  0  0  0  0  0  0  0  0  0  0
    4.2675   -1.5339   -1.5810 H   0  0  0  0  0  0  0  0  0  0  0  0
    5.7468   -3.1002   -0.2990 H   0  0  0  0  0  0  0  0  0  0  0  0
    4.1012   -3.1942    0.3189 H   0  0  0  0  0  0  0  0  0  0  0  0
    5.3206   -2.2921    1.2054 H   0  0  0  0  0  0  0  0  0  0  0  0
  1  2  1  0  0  0  0
  2  3  1  0  0  0  0
  3  4  1  0  0  0  0
  4  5  1  0  0  0  0
  5  6  1  0  0  0  0
  6  7  1  0  0  0  0
  7  8  1  0  0  0  0
  8  9  1  0  0  0  0
  9 10  1  0  0  0  0
 10 11  1  0  0  0  0
 11 12  1  0  0  0  0
 12 13  1  0  0  0  0
  1 14  1  0  0  0  0
  1 15  1  0  0  0  0
  1 16  1  0  0  0  0
  2 17  1  0  0  0  0
  2 18  1  0  0  0  0
  3 19  1  0  0  0  0
  3 20  1  0  0  0  0
  4 21  1  0  0  0  0
  4 22  1  0  0  0  0
  5 23  1  0  0  0  0
  5 24  1  0  0  0  0
  6 25  1  0  0  0  0
  6 26  1  0  0  0  0
  7 27  1  0  0  0  0
  7 28  1  0  0  0  0
  8 29  1  0  0  0  0
  8 30  1  0  0  0  0
  9 31  1  0  0  0  0
  9 32  1  0  0  0  0
 10 33  1  0  0  0  0
 10 34  1  0  0  0  0
 11 35  1  0  0  0  0
 11 36  1  0  0  0  0
 12 37  1  0  0  0  0
 12 38  1  0  0  0  0
 13 39  1  0  0  0  0
 13 40  1  0  0  0  0
 13 41  1  0  0  0  0
M  CHG  1   1   1
M  END
