 xtb: 6.5.1 (fef0646)
          01242317093D

 25 24  0     0  0            999 V2000
   -1.7223   -0.2311    0.9731 N   0  0  0  0  0  0  0  0  0  0  0  0
   -1.8831    1.2203    1.2746 C   0  0  0  0  0  0  0  0  0  0  0  0
   -0.9526    2.1059    0.4466 C   0  0  0  0  0  0  0  0  0  0  0  0
    0.5220    2.0334    0.8691 C   0  0  0  0  0  0  0  0  0  0  0  0
    1.1545    0.6884    0.6554 C   0  0  0  0  0  0  0  0  0  0  0  0
    1.3463    0.1991   -0.6287 C   0  0  0  0  0  0  0  0  0  0  0  0
    1.8655   -1.0639   -0.8320 C   0  0  0  0  0  0  0  0  0  0  0  0
    2.1990   -1.8556    0.2483 C   0  0  0  0  0  0  0  0  0  0  0  0
    2.0195   -1.3794    1.5312 C   0  0  0  0  0  0  0  0  0  0  0  0
    1.5056   -0.1140    1.7334 C   0  0  0  0  0  0  0  0  0  0  0  0
   -1.9276   -0.7005   -2.4676 Cl  0  0  0  0  0  0  0  0  0  0  0  0
   -0.7593   -0.5285    1.1758 H   0  0  0  0  0  0  0  0  0  0  0  0
   -1.8821   -0.4150   -0.0299 H   0  0  0  0  0  0  0  0  0  0  0  0
   -2.3655   -0.8270    1.5197 H   0  0  0  0  0  0  0  0  0  0  0  0
   -1.7087    1.3992    2.3421 H   0  0  0  0  0  0  0  0  0  0  0  0
   -2.9286    1.5034    1.0981 H   0  0  0  0  0  0  0  0  0  0  0  0
   -1.2945    3.1481    0.4989 H   0  0  0  0  0  0  0  0  0  0  0  0
   -1.0416    1.8267   -0.6092 H   0  0  0  0  0  0  0  0  0  0  0  0
    0.6120    2.3112    1.9250 H   0  0  0  0  0  0  0  0  0  0  0  0
    1.1092    2.7816    0.3230 H   0  0  0  0  0  0  0  0  0  0  0  0
    1.0750    0.8138   -1.4707 H   0  0  0  0  0  0  0  0  0  0  0  0
    2.0056   -1.4336   -1.8352 H   0  0  0  0  0  0  0  0  0  0  0  0
    2.6015   -2.8434    0.0902 H   0  0  0  0  0  0  0  0  0  0  0  0
    2.2824   -1.9954    2.3764 H   0  0  0  0  0  0  0  0  0  0  0  0
    1.3599    0.2551    2.7350 H   0  0  0  0  0  0  0  0  0  0  0  0
  1  2  1  0  0  0  0
  2  3  1  0  0  0  0
  3  4  1  0  0  0  0
  4  5  1  0  0  0  0
  5  6  4  0  0  0  0
  6  7  4  0  0  0  0
  7  8  4  0  0  0  0
  8  9  4  0  0  0  0
  5 10  4  0  0  0  0
  9 10  4  0  0  0  0
  1 12  1  0  0  0  0
  1 13  1  0  0  0  0
  1 14  1  0  0  0  0
  2 15  1  0  0  0  0
  2 16  1  0  0  0  0
  3 17  1  0  0  0  0
  3 18  1  0  0  0  0
  4 19  1  0  0  0  0
  4 20  1  0  0  0  0
  6 21  1  0  0  0  0
  7 22  1  0  0  0  0
  8 23  1  0  0  0  0
  9 24  1  0  0  0  0
 10 25  1  0  0  0  0
M  END
