 xtb: 6.5.1 (fef0646)
          02032320343D

 25 24  0     0  0            999 V2000
   -3.1744    1.4935    0.6470 N   0  0  0  0  0  0  0  0  0  0  0  0
   -1.8271    2.0338    0.3018 C   0  0  0  0  0  0  0  0  0  0  0  0
   -0.7316    0.9865    0.4522 C   0  0  0  0  0  0  0  0  0  0  0  0
    0.6560    1.5104    0.0779 C   0  0  0  0  0  0  0  0  0  0  0  0
    1.7266    0.4665    0.2106 C   0  0  0  0  0  0  0  0  0  0  0  0
    1.9996   -0.4009   -0.8376 C   0  0  0  0  0  0  0  0  0  0  0  0
    2.9610   -1.3833   -0.7070 C   0  0  0  0  0  0  0  0  0  0  0  0
    3.6581   -1.5149    0.4772 C   0  0  0  0  0  0  0  0  0  0  0  0
    3.3893   -0.6647    1.5310 C   0  0  0  0  0  0  0  0  0  0  0  0
    2.4272    0.3172    1.3989 C   0  0  0  0  0  0  0  0  0  0  0  0
   -3.6072   -1.3298   -1.3945 Cl  0  0  0  0  0  0  0  0  0  0  0  0
   -3.9202    2.1902    0.5111 H   0  0  0  0  0  0  0  0  0  0  0  0
   -3.2057    1.1811    1.6269 H   0  0  0  0  0  0  0  0  0  0  0  0
   -3.3927    0.6732    0.0559 H   0  0  0  0  0  0  0  0  0  0  0  0
   -1.6006    2.9025    0.9312 H   0  0  0  0  0  0  0  0  0  0  0  0
   -1.8338    2.4138   -0.7267 H   0  0  0  0  0  0  0  0  0  0  0  0
   -0.9718    0.1126   -0.1643 H   0  0  0  0  0  0  0  0  0  0  0  0
   -0.7179    0.6107    1.4815 H   0  0  0  0  0  0  0  0  0  0  0  0
    0.9090    2.3747    0.7020 H   0  0  0  0  0  0  0  0  0  0  0  0
    0.6455    1.8907   -0.9497 H   0  0  0  0  0  0  0  0  0  0  0  0
    1.4488   -0.3015   -1.7582 H   0  0  0  0  0  0  0  0  0  0  0  0
    3.1658   -2.0493   -1.5300 H   0  0  0  0  0  0  0  0  0  0  0  0
    4.4090   -2.2818    0.5798 H   0  0  0  0  0  0  0  0  0  0  0  0
    3.9293   -0.7685    2.4585 H   0  0  0  0  0  0  0  0  0  0  0  0
    2.2106    0.9765    2.2229 H   0  0  0  0  0  0  0  0  0  0  0  0
  1  2  1  0  0  0  0
  2  3  1  0  0  0  0
  3  4  1  0  0  0  0
  4  5  1  0  0  0  0
  5  6  4  0  0  0  0
  6  7  4  0  0  0  0
  7  8  4  0  0  0  0
  8  9  4  0  0  0  0
  5 10  4  0  0  0  0
  9 10  4  0  0  0  0
  1 12  1  0  0  0  0
  1 13  1  0  0  0  0
  1 14  1  0  0  0  0
  2 15  1  0  0  0  0
  2 16  1  0  0  0  0
  3 17  1  0  0  0  0
  3 18  1  0  0  0  0
  4 19  1  0  0  0  0
  4 20  1  0  0  0  0
  6 21  1  0  0  0  0
  7 22  1  0  0  0  0
  8 23  1  0  0  0  0
  9 24  1  0  0  0  0
 10 25  1  0  0  0  0
M  END
