17
 xtb: 6.5.1 (fef0646)
N           -2.95961868319691       -2.40742238787867       -0.58574671563125
C           -3.39498823434727       -1.17823248236608        0.16379159790377
C           -2.22815849773678       -0.25552270561072        0.53169105842071
C           -1.62029588718310        0.47383119636401       -0.67508409254863
C           -0.46513481641192        1.39366351786981       -0.31176837807023
I            1.25452582503512        0.24429783377019        0.08321759670391
H           -3.86161442342680       -2.97119849940629       -0.79224526200773
H           -2.32311092704460       -2.96244327000467       -0.16508587488381
H           -2.66759681151681       -2.10203059882496       -1.54846929785109
H           -3.83800159997976       -1.54169693432667        1.14507221824268
H           -4.15405729567737       -0.60118886777730       -0.29482142339715
H           -1.38374128493813       -0.90486986571788        0.97908688027790
H           -2.45094607022223        0.43771312801357        1.29181854376620
H           -2.43191485790091        1.01364749673770       -1.16822230370429
H           -1.29710994734083       -0.28279394912809       -1.45510545939590
H           -0.68903424607311        2.03661457696234        0.46232054917054
H           -0.17428693387624        1.99121052158910       -1.22595967244911
