18

N          1.88180       -0.00546        0.46710
C          0.76995        0.09389       -0.51524
C         -0.07550       -1.17584       -0.44910
C         -1.22085       -0.81504        0.48617
C         -1.52643        0.62269        0.10060
C         -0.15210        1.25085       -0.11647
H          2.52367       -0.77253        0.22799
H          1.54018       -0.17739        1.42262
H          2.43920        0.85948        0.49023
H          1.23553        0.23808       -1.49458
H          0.47424       -2.05896       -0.10899
H         -0.47835       -1.39673       -1.44572
H         -0.89531       -0.86974        1.53153
H         -2.08476       -1.47296        0.35897
H         -2.10695        1.14728        0.86471
H         -2.09868        0.64689       -0.83439
H          0.18258        1.74873        0.80115
H         -0.19858        2.01329       -0.90133
