21

N          2.91368       -3.70369        1.11842
C          2.45310       -2.65340        0.16995
C          3.04488       -1.29104        0.54230
C          4.55570       -1.28659        0.55030
C          5.27866       -1.56732       -0.61980
C          6.67515       -1.58916       -0.60019
C          7.35819       -1.31631        0.58214
Cl         9.07566       -1.34928        0.60477
C          6.65443       -1.01515        1.74552
C          5.25703       -0.99725        1.73103
H          2.55150       -4.63030        0.85912
H          2.61513       -3.50931        2.08270
H          3.94280       -3.76958        1.12462
H          1.36064       -2.63715        0.22108
H          2.75894       -2.98088       -0.82836
H          2.66350       -0.99217        1.52729
H          2.69556       -0.53087       -0.16672
H          4.77380       -1.75046       -1.56631
H          7.22766       -1.80444       -1.51280
H          7.19079       -0.77890        2.66200
H          4.73370       -0.73385        2.64867
