18
0.0
N           -0.01731   1.69174  -0.01811
C            1.11706   0.96754  -0.65359
C            1.39509  -0.39560  -0.00319
C            2.43161  -1.18122  -0.80962
C            1.83977  -0.24190   1.45145
Cl          -2.75890  -0.44555  -0.00262
H           -0.24596   2.57044  -0.51377
H            0.19159   1.93618   0.96174
H           -0.87019   1.10179  -0.01270
H            2.02369   1.58148  -0.61119
H            0.90674   0.82636  -1.72065
H            0.44804  -0.96272  -0.01344
H            2.61621  -2.16548  -0.37418
H            3.38407  -0.64920  -0.83356
H            2.11065  -1.32730  -1.84326
H            2.74963   0.35717   1.51470
H            2.05362  -1.21107   1.90703
H            1.07870   0.24814   2.06132
