18
 xtb: 6.5.1 (fef0646)
N            0.10599381894742        1.78795784805368       -0.00992726171402
C            1.17852575304605        0.98876946718404       -0.66554150241543
C            1.40791940695301       -0.38107463435871       -0.00874548020194
C            2.43482165181470       -1.18736195024365       -0.80732486920551
C            1.84237280460662       -0.23712083180685        1.45010760478274
Cl          -2.90864613758612       -0.54194299700298        0.00235004182343
H           -0.20342317974006        2.59874048733386       -0.51209961949193
H            0.23421253648332        1.96011728120116        0.96271119457252
H           -0.83970575746768        1.14213543187902       -0.00541069060310
H            2.05027767424865        1.57515082348363       -0.62197148781434
H            0.91566164133670        0.83282564127607       -1.72229467278518
H            0.44802064730547       -0.95225766163103       -0.01766507467545
H            2.61042482777804       -2.16844998770014       -0.37350241667755
H            3.38811901956517       -0.65642740179215       -0.83047721650524
H            2.11315143671120       -1.32693846321352       -1.84337142704714
H            2.75167629077056        0.35634485746114        1.51739140108737
H            2.05122749450362       -1.21091373380728        1.90543420211719
H            1.07908355246507        0.24962259823006        2.06037404225910
