36
 xtb: 6.5.1 (fef0646)
N           -4.82051570057811       -0.79245277187193       -1.46392757152433
C           -4.71719408201480        0.43588935094477       -0.63687895128977
C           -4.16856825803278        0.07293239367541        0.73430612636437
O           -2.90232792082229       -0.56993013758950        0.61014319242914
C           -1.83369387555943        0.24387883256842        0.43492478983136
C           -0.54520599710924       -0.39482868059709        0.33587343913730
C           -0.41863919199101       -1.78763357816260        0.45417309603061
C            0.79538330684696       -2.40388556870839        0.35653303514977
C            0.61273375576127        0.38512925777083        0.12033922730994
C            0.51916513573636        1.79517477281098        0.00958750258039
C           -0.75443999962127        2.40122085370041        0.12743450949372
C           -1.87621403135544        1.66349446687504        0.33361232688825
C            1.69384358508260        2.54521937183696       -0.20893761464647
C            2.91066553580688        1.94090324811158       -0.31283592785755
C            3.04186103054143        0.53266140389398       -0.20376900647651
C            4.27771423818791       -0.11750377430778       -0.30529832444366
C            4.36488217594747       -1.48950312490704       -0.19288322272354
C            3.23966125370912       -2.25426606634748        0.02314010219071
C            1.97602569902870       -1.65568546820496        0.13222904894554
C            1.87806900272047       -0.24672667603306        0.01606549863933
H           -3.94463064449602       -1.30760718372620       -1.42313580873197
H           -5.03496250925508       -0.55134886385539       -2.47126107322761
H           -5.59310272546923       -1.40901846753700       -1.13576998706435
H           -5.70927493837765        0.91562779188644       -0.53908842741514
H           -4.07276693523212        1.14831734118141       -1.12606958534138
H           -4.81242281887819       -0.66063724343880        1.23112794079941
H           -4.08066252930131        0.92160935895257        1.41430877681116
H           -1.31084674207213       -2.36034346455327        0.63428974606761
H            0.86671596441142       -3.47316582994306        0.45180676301166
H           -0.81982321233969        3.47418085859097        0.04723907404549
H           -2.81638979595468        2.17344503845638        0.41717886500179
H            1.62045742401606        3.61591727869909       -0.29204543178584
H            3.79819282757861        2.53120816554143       -0.47629082550082
H            5.16812876421977        0.46570792853625       -0.46862232799189
H            5.32749373245342       -1.97189009434372       -0.26844757942705
H            3.32139499851170       -3.32502201236502        0.11401156014499
