36
 xtb: 6.5.1 (fef0646)
N           -4.85924018556695       -0.77865905938174       -1.49946623164062
C           -4.76506557921475        0.41629411927432       -0.61968547787742
C           -4.15501223074600        0.06493059152885        0.72854495883049
O           -2.88447652873117       -0.56357389073531        0.61680559518054
C           -1.82631572585187        0.24896232698106        0.42979386509854
C           -0.53847936657606       -0.39097218194910        0.33421845934894
C           -0.41727251160113       -1.78387131588774        0.45613100973739
C            0.79519935452458       -2.40292422448498        0.35916983054552
C            0.61928535105269        0.38717373670630        0.11925796247406
C            0.52630156417683        1.79737652947846        0.00812464896721
C           -0.74744446870719        2.40452585041947        0.11960101288690
C           -1.87092110795626        1.66776461550235        0.32026432796137
C            1.70320734427318        2.54526212543135       -0.20508936139087
C            2.91916167661105        1.93866500085886       -0.30647852321340
C            3.04835633655132        0.53001771248822       -0.19881802433099
C            4.28336251419541       -0.12244139082538       -0.29554988360538
C            4.36732370227591       -1.49458833197057       -0.18170148371848
C            3.24014217984544       -2.25736786003893        0.03062896746591
C            1.97737288513262       -1.65663172781744        0.13592294451960
C            1.88305705658342       -0.24750380240886        0.01777532578980
H           -3.90542680709193       -1.15394920494039       -1.68970028611403
H           -5.32685188229045       -0.56989452889601       -2.38842443018138
H           -5.38090495439995       -1.52735788501547       -0.99961006893761
H           -5.73291952383456        0.88488169781359       -0.50944308229167
H           -4.11531321226545        1.16373163770570       -1.12750137725623
H           -4.80469435657630       -0.66285956822592        1.23529967686411
H           -4.07905761346986        0.92264036151314        1.40933040490479
H           -1.31156845369237       -2.35788525530318        0.63349443574595
H            0.86604173472165       -3.47291163237341        0.45293150460165
H           -0.81728058030408        3.47510610538750        0.04371784788521
H           -2.81557429231860        2.17406867768702        0.40930371783227
H            1.62409188461277        3.61604619040192       -0.29036143602925
H            3.80124968008306        2.53012975769182       -0.47281060492237
H            5.17049703328253        0.46364421697258       -0.46403599386203
H            5.32806471405193       -1.97399021376250       -0.26324416297052
H            3.32086692137876       -3.32591349017237        0.11714650758905
