19
0.162
N           -1.26345  -1.43901   1.29727
C           -0.54515  -2.24825   0.27474
C           -0.03424  -1.38578  -0.87644
C            0.79763  -0.24377  -0.40933
C            0.33403   1.00363  -0.14227
C            1.34338   1.90291   0.31185
C            2.56654   1.33229   0.38819
S            2.50607  -0.32484  -0.09629
Cl          -3.23177   0.92242  -0.36538
H           -0.60888  -0.79930   1.78313
H           -1.72421  -2.02242   2.01484
H           -1.98247  -0.84498   0.85193
H           -1.20540  -3.03837  -0.10516
H            0.29541  -2.76654   0.75211
H           -0.88297  -0.99343  -1.44917
H            0.54821  -1.98903  -1.58365
H           -0.70591   1.27494  -0.25018
H            1.14593   2.93398   0.56925
H            3.46629   1.82667   0.70562
