36
 xtb: 6.5.1 (fef0646)
N           -5.72740820052133        0.67903786644054       -0.06814988673689
C           -4.27570484959550        0.33760744488013       -0.09303676727699
C           -3.47783757148103        1.14490247482394        0.92409697767822
C           -2.01341673591916        0.81810291726070        0.90533718610272
C           -1.15584745269295        1.46628013261834        0.02685621852506
C            0.18364122615880        1.14557300268990       -0.02014125008667
C            0.71238969227606        0.15568399362861        0.81054503897600
C            2.12117516056224       -0.21789602489268        0.79111800901447
C            3.07885999105162        0.39400391244790        0.07753558299081
C            4.48756258014669        0.01893294105305        0.05844500894654
C            5.35918976450634        0.67152176540784       -0.81572314005046
C            6.69748326598695        0.34463307250255       -0.85960781417102
C            7.19768177063519       -0.63926660512583       -0.02980640014741
C            6.35361162431122       -1.29533824620661        0.84431162471826
C            5.01401667649069       -0.97208257876209        0.88988644086658
C           -0.15959813445246       -0.49993433470844        1.68175424013965
C           -1.49790428524798       -0.17456167863744        1.72591093780179
Cl          -7.45711107256697       -1.33436903363872       -2.49563853675611
H           -6.13747626798191        0.48374544911686        0.84745650776983
H           -6.26142435293002        0.10030317890146       -0.76997629239340
H           -5.88334164984576        1.65469331023955       -0.30115264185856
H           -3.87153237225655        0.49006145206712       -1.10479614596836
H           -4.13812786322248       -0.74103615413151        0.09984982908655
H           -3.88158936013806        0.98248950236215        1.91783837690113
H           -3.62043460704909        2.21399851045712        0.71648235152724
H           -1.54163551208861        2.26431891419487       -0.59502114194685
H            0.83713382953393        1.70812864958584       -0.66852547872710
H            2.39995450652156       -1.01784454156692        1.44980135440536
H            2.79751025134873        1.19313035673260       -0.58473763469498
H            4.97106875942074        1.42834326452733       -1.47325043129367
H            7.35649291469539        0.85547791320384       -1.53991674713863
H            8.24611348429347       -0.88939498706521       -0.05256952793939
H            6.74314516794182       -2.05849755844883        1.50197064392007
H            4.36769392750324       -1.49223798448131        1.57801961330846
H            0.21470540356011       -1.29521028389686        2.29475506920298
H           -2.17256213900697       -0.72496873121946        2.35505655344883
