 xtb: 6.5.1 (fef0646)
          01242310113D

 41 40  0     0  0            999 V2000
   -5.9273   -0.4328   -0.3718 N   0  0  0  0  0  0  0  0  0  0  0  0
   -4.7751   -0.7921    0.5031 C   0  0  0  0  0  0  0  0  0  0  0  0
   -4.0868    0.4269    1.1091 C   0  0  0  0  0  0  0  0  0  0  0  0
   -3.4648    1.3727    0.0788 C   0  0  0  0  0  0  0  0  0  0  0  0
   -2.3399    0.7549   -0.7576 C   0  0  0  0  0  0  0  0  0  0  0  0
   -1.1049    0.3671    0.0577 C   0  0  0  0  0  0  0  0  0  0  0  0
    0.0392   -0.1695   -0.8043 C   0  0  0  0  0  0  0  0  0  0  0  0
    1.2782   -0.5540    0.0064 C   0  0  0  0  0  0  0  0  0  0  0  0
    2.4139   -1.1028   -0.8589 C   0  0  0  0  0  0  0  0  0  0  0  0
    3.6280   -1.5838   -0.0581 C   0  0  0  0  0  0  0  0  0  0  0  0
    4.3636   -0.4833    0.7128 C   0  0  0  0  0  0  0  0  0  0  0  0
    5.0111    0.5742   -0.1835 C   0  0  0  0  0  0  0  0  0  0  0  0
    5.8141    1.6020    0.5991 C   0  0  0  0  0  0  0  0  0  0  0  0
   -6.4177   -1.2699   -0.7231 H   0  0  0  0  0  0  0  0  0  0  0  0
   -5.6272    0.1131   -1.1930 H   0  0  0  0  0  0  0  0  0  0  0  0
   -6.6173    0.1355    0.1418 H   0  0  0  0  0  0  0  0  0  0  0  0
   -4.0552   -1.3886   -0.0684 H   0  0  0  0  0  0  0  0  0  0  0  0
   -5.1315   -1.4562    1.3012 H   0  0  0  0  0  0  0  0  0  0  0  0
   -3.3172    0.1052    1.8206 H   0  0  0  0  0  0  0  0  0  0  0  0
   -4.8194    0.9762    1.7136 H   0  0  0  0  0  0  0  0  0  0  0  0
   -3.0754    2.2637    0.5874 H   0  0  0  0  0  0  0  0  0  0  0  0
   -4.2535    1.7498   -0.5831 H   0  0  0  0  0  0  0  0  0  0  0  0
   -2.0362    1.4578   -1.5436 H   0  0  0  0  0  0  0  0  0  0  0  0
   -2.7132   -0.1227   -1.2966 H   0  0  0  0  0  0  0  0  0  0  0  0
   -1.3740   -0.3819    0.8106 H   0  0  0  0  0  0  0  0  0  0  0  0
   -0.7561    1.2351    0.6290 H   0  0  0  0  0  0  0  0  0  0  0  0
    0.3124    0.5772   -1.5589 H   0  0  0  0  0  0  0  0  0  0  0  0
   -0.3095   -1.0374   -1.3759 H   0  0  0  0  0  0  0  0  0  0  0  0
    1.0032   -1.2974    0.7636 H   0  0  0  0  0  0  0  0  0  0  0  0
    1.6265    0.3167    0.5730 H   0  0  0  0  0  0  0  0  0  0  0  0
    2.7217   -0.3418   -1.5844 H   0  0  0  0  0  0  0  0  0  0  0  0
    2.0245   -1.9284   -1.4679 H   0  0  0  0  0  0  0  0  0  0  0  0
    4.3400   -2.0782   -0.7307 H   0  0  0  0  0  0  0  0  0  0  0  0
    3.3027   -2.3664    0.6385 H   0  0  0  0  0  0  0  0  0  0  0  0
    5.1408   -0.9324    1.3441 H   0  0  0  0  0  0  0  0  0  0  0  0
    3.6786    0.0030    1.4161 H   0  0  0  0  0  0  0  0  0  0  0  0
    4.2384    1.0789   -0.7759 H   0  0  0  0  0  0  0  0  0  0  0  0
    5.6560    0.0778   -0.9196 H   0  0  0  0  0  0  0  0  0  0  0  0
    6.2693    2.3500   -0.0535 H   0  0  0  0  0  0  0  0  0  0  0  0
    6.6191    1.1285    1.1637 H   0  0  0  0  0  0  0  0  0  0  0  0
    5.1858    2.1320    1.3170 H   0  0  0  0  0  0  0  0  0  0  0  0
  1  2  1  0  0  0  0
  2  3  1  0  0  0  0
  3  4  1  0  0  0  0
  4  5  1  0  0  0  0
  5  6  1  0  0  0  0
  6  7  1  0  0  0  0
  7  8  1  0  0  0  0
  8  9  1  0  0  0  0
  9 10  1  0  0  0  0
 10 11  1  0  0  0  0
 11 12  1  0  0  0  0
 12 13  1  0  0  0  0
  1 14  1  0  0  0  0
  1 15  1  0  0  0  0
  1 16  1  0  0  0  0
  2 17  1  0  0  0  0
  2 18  1  0  0  0  0
  3 19  1  0  0  0  0
  3 20  1  0  0  0  0
  4 21  1  0  0  0  0
  4 22  1  0  0  0  0
  5 23  1  0  0  0  0
  5 24  1  0  0  0  0
  6 25  1  0  0  0  0
  6 26  1  0  0  0  0
  7 27  1  0  0  0  0
  7 28  1  0  0  0  0
  8 29  1  0  0  0  0
  8 30  1  0  0  0  0
  9 31  1  0  0  0  0
  9 32  1  0  0  0  0
 10 33  1  0  0  0  0
 10 34  1  0  0  0  0
 11 35  1  0  0  0  0
 11 36  1  0  0  0  0
 12 37  1  0  0  0  0
 12 38  1  0  0  0  0
 13 39  1  0  0  0  0
 13 40  1  0  0  0  0
 13 41  1  0  0  0  0
M  CHG  1   1   1
M  END
