  28

 N          2.7378403374        0.8337224558        0.8901696958
 C          1.7123390069        1.5585223637        0.0902906887
 C          2.2629254271        1.9442738067       -1.2776098018
 C          0.4436697502        0.7479851280       -0.0288243515
 C          0.4815643796       -0.5643062424       -0.5318876806
 C         -0.6567078199       -1.3069656890       -0.6547899417
 C         -0.7635584903        1.2836713101        0.3421258650
 C         -1.9617437168        0.5430459428        0.2320735058
 C         -1.9079276589       -0.7753432012       -0.2763644202
 C         -3.1063074426       -1.5161759334       -0.3869578787
 C         -4.2983722548       -0.9703332924       -0.0083764096
 C         -4.3518839559        0.3347155685        0.4958832277
 C         -3.2124834284        1.0773764758        0.6144441269
 Cl         3.6681378832       -1.9122384828       -1.0762650757
 H          3.5726615888        1.4178684666        1.0590078468
 H          3.0482851560       -0.0158090916        0.3847543669
 H          2.3593281086        0.5366741212        1.8044425864
 H          1.4614180559        2.4827309773        0.6376211684
 H          2.5325712114        1.0538031747       -1.8469476788
 H          3.1594745744        2.5606907838       -1.1878934380
 H          1.5261038126        2.4977354093       -1.8620561470
 H          1.4311625852       -0.9865920605       -0.8174678555
 H         -0.6120995282       -2.3119442835       -1.0415743440
 H         -0.8057619392        2.2887306354        0.7258754426
 H         -3.0650617515       -2.5208268686       -0.7748539261
 H         -5.2068180236       -1.5455262642       -0.0965782566
 H         -5.3010042363        0.7529280549        0.7921718114
 H         -3.2540589545        2.0814890677        1.0033485953
          28
        -40.26046505
 N          2.8431572504        0.9044949303        1.0558215476
 C          2.0950005828        1.6987899763        0.0423239384
 C          2.7008697161        1.5177574839       -1.3442862688
 C          0.6257028713        1.3515165084        0.0534647015
 C         -0.3455633948        2.3682477090        0.1209768805
 C         -1.6781261962        2.0717677768        0.1194801339
 C          0.2161119856        0.0465478481       -0.0223059358
 C         -1.1532181955       -0.2973660134       -0.0267799476
 C         -2.1186165078        0.7326949650        0.0469338848
 C         -3.4887481169        0.3863230713        0.0451767589
 C         -3.8749220325       -0.9207248128       -0.0273722573
 C         -2.9181450528       -1.9404488254       -0.1017177508
 C         -1.5866266806       -1.6396123718       -0.1016794320
 Cl         2.6364229616       -2.4448883226        0.0117625863
 H          3.8311755987        1.1987156225        1.1181452852
 H          2.8325316636       -0.1002761486        0.8033237782
 H          2.4174797084        0.9972271294        1.9925524393
 H          2.1835223943        2.7608939768        0.3263188905
 H          3.7564637558        1.7948323089       -1.3582216324
 H          2.1800441958        2.1227484805       -2.0891610445
 H          2.6303078908        0.4763490048       -1.6591414804
 H         -0.0224253783        3.3952702029        0.1736448025
 H         -2.4114508465        2.8597208131        0.1734671602
 H          0.9474255328       -0.7411054308       -0.0767147711
 H         -4.2254644320        1.1707979568        0.1028889249
 H         -4.9238398151       -1.1730398301       -0.0272666667
 H         -3.2379894120       -2.9689969906       -0.1588617056
 H         -0.8483380257       -2.4225781579       -0.1573838142
