  19

 N          1.8116505739        0.3866743706       -1.0077875518
 C          2.6904772853        0.0614468467        0.1372349512
 C          3.1346837576       -1.3775469056        0.1186147596
 C          4.4672819693       -1.6996073500        0.3415697004
 C          4.8789574694       -3.0211203144        0.3495739880
 C          3.9617997269       -4.0335547070        0.1249616676
 C          2.6316746801       -3.7184006645       -0.1005112550
 C          2.2161912648       -2.3982081563       -0.0999038748
 Cl        -1.0403725553       -0.6916939157       -0.7122126783
 H          1.6491378078        1.3947434851       -1.0641039912
 H          0.8649504023       -0.0571449371       -0.9032841024
 H          2.2166794792        0.0518896666       -1.8855826137
 H          2.1339998460        0.2523499776        1.0572278185
 H          3.5680096028        0.7087534104        0.1129865800
 H          5.1888268181       -0.9161449189        0.5174063495
 H          5.9159067726       -3.2625815730        0.5284682410
 H          4.2799628677       -5.0654908214        0.1278770945
 H          1.9112684340       -4.5048886283       -0.2732331867
 H          1.1737537975       -2.1673148648       -0.2618318966
