 xtb: 6.5.1 (fef0646)
          01242314583D

 21 21  0     0  0            999 V2000
    2.7014    0.1721    1.5495 N   0  0  0  0  0  0  0  0  0  0  0  0
    2.4355    0.0461    0.0831 C   0  0  0  0  0  0  0  0  0  0  0  0
    0.9483    0.2613   -0.1693 C   0  0  0  0  0  0  0  0  0  0  0  0
    2.9048   -1.3055   -0.4041 C   0  0  0  0  0  0  0  0  0  0  0  0
    3.8972   -1.3905   -1.3718 C   0  0  0  0  0  0  0  0  0  0  0  0
    4.3291   -2.6242   -1.8276 C   0  0  0  0  0  0  0  0  0  0  0  0
    3.7746   -3.7857   -1.3169 C   0  0  0  0  0  0  0  0  0  0  0  0
    2.7829   -3.7089   -0.3527 C   0  0  0  0  0  0  0  0  0  0  0  0
    2.3500   -2.4763    0.1017 C   0  0  0  0  0  0  0  0  0  0  0  0
    3.7046    0.0849    1.7491 H   0  0  0  0  0  0  0  0  0  0  0  0
    2.2040   -0.5695    2.0571 H   0  0  0  0  0  0  0  0  0  0  0  0
    2.3690    1.0807    1.8944 H   0  0  0  0  0  0  0  0  0  0  0  0
    3.0053    0.8234   -0.4314 H   0  0  0  0  0  0  0  0  0  0  0  0
    0.3466   -0.4733    0.3571 H   0  0  0  0  0  0  0  0  0  0  0  0
    0.7387    0.1592   -1.2297 H   0  0  0  0  0  0  0  0  0  0  0  0
    0.6427    1.2579    0.1362 H   0  0  0  0  0  0  0  0  0  0  0  0
    4.3348   -0.4921   -1.7802 H   0  0  0  0  0  0  0  0  0  0  0  0
    5.0999   -2.6811   -2.5813 H   0  0  0  0  0  0  0  0  0  0  0  0
    4.1118   -4.7481   -1.6719 H   0  0  0  0  0  0  0  0  0  0  0  0
    2.3464   -4.6138    0.0420 H   0  0  0  0  0  0  0  0  0  0  0  0
    1.5643   -2.4464    0.8408 H   0  0  0  0  0  0  0  0  0  0  0  0
  1  2  1  0  0  0  0
  2  3  1  0  0  0  0
  2  4  1  0  0  0  0
  4  5  4  0  0  0  0
  5  6  4  0  0  0  0
  6  7  4  0  0  0  0
  7  8  4  0  0  0  0
  4  9  4  0  0  0  0
  8  9  4  0  0  0  0
  1 10  1  0  0  0  0
  1 11  1  0  0  0  0
  1 12  1  0  0  0  0
  2 13  1  0  0  0  0
  3 14  1  0  0  0  0
  3 15  1  0  0  0  0
  3 16  1  0  0  0  0
  5 17  1  0  0  0  0
  6 18  1  0  0  0  0
  7 19  1  0  0  0  0
  8 20  1  0  0  0  0
  9 21  1  0  0  0  0
M  CHG  1   1   1
M  END
