 xtb: 6.5.1 (fef0646)
          01242314573D

 20 19  0     0  0            999 V2000
    0.8168   -0.0351   -0.0234 N   0  0  0  0  0  0  0  0  0  0  0  0
    2.2838    0.1861   -0.0283 C   0  0  0  0  0  0  0  0  0  0  0  0
    2.9063   -0.3666    1.2514 C   0  0  0  0  0  0  0  0  0  0  0  0
    4.4337   -0.3650    1.1987 C   0  0  0  0  0  0  0  0  0  0  0  0
    5.0369    1.0400    1.1741 C   0  0  0  0  0  0  0  0  0  0  0  0
    6.5407    0.9914    1.2974 C   0  0  0  0  0  0  0  0  0  0  0  0
    7.1682    2.1695    1.3040 O   0  0  0  0  0  0  0  0  0  0  0  0
    7.1804   -0.0316    1.3857 O   0  0  0  0  0  0  0  0  0  0  0  0
    0.3881    0.3408   -0.8769 H   0  0  0  0  0  0  0  0  0  0  0  0
    0.3928    0.4260    0.7901 H   0  0  0  0  0  0  0  0  0  0  0  0
    0.6098   -1.0395    0.0325 H   0  0  0  0  0  0  0  0  0  0  0  0
    2.4747    1.2547   -0.1135 H   0  0  0  0  0  0  0  0  0  0  0  0
    2.7186   -0.3177   -0.8915 H   0  0  0  0  0  0  0  0  0  0  0  0
    2.5876   -1.3993    1.3960 H   0  0  0  0  0  0  0  0  0  0  0  0
    2.5817    0.2139    2.1155 H   0  0  0  0  0  0  0  0  0  0  0  0
    4.7857   -0.9167    0.3257 H   0  0  0  0  0  0  0  0  0  0  0  0
    4.8262   -0.8856    2.0739 H   0  0  0  0  0  0  0  0  0  0  0  0
    4.6502    1.6307    2.0080 H   0  0  0  0  0  0  0  0  0  0  0  0
    4.8000    1.5524    0.2400 H   0  0  0  0  0  0  0  0  0  0  0  0
    6.5754    2.9397    1.2303 H   0  0  0  0  0  0  0  0  0  0  0  0
  1  2  1  0  0  0  0
  2  3  1  0  0  0  0
  3  4  1  0  0  0  0
  4  5  1  0  0  0  0
  5  6  1  0  0  0  0
  6  7  1  0  0  0  0
  6  8  2  0  0  0  0
  1  9  1  0  0  0  0
  1 10  1  0  0  0  0
  1 11  1  0  0  0  0
  2 12  1  0  0  0  0
  2 13  1  0  0  0  0
  3 14  1  0  0  0  0
  3 15  1  0  0  0  0
  4 16  1  0  0  0  0
  4 17  1  0  0  0  0
  5 18  1  0  0  0  0
  5 19  1  0  0  0  0
  7 20  1  0  0  0  0
M  CHG  1   1   1
M  END
