 xtb: 6.5.1 (fef0646)
          01242310043D

 24 24  0     0  0            999 V2000
   -2.6457    0.0016   -0.7427 N   0  0  0  0  0  0  0  0  0  0  0  0
   -2.0462   -0.0020    0.6227 C   0  0  0  0  0  0  0  0  0  0  0  0
   -0.5073   -0.0011    0.6374 C   0  0  0  0  0  0  0  0  0  0  0  0
    0.1006    1.2647   -0.0130 C   0  0  0  0  0  0  0  0  0  0  0  0
    1.6359    1.2732    0.1067 C   0  0  0  0  0  0  0  0  0  0  0  0
    2.2524    0.0012   -0.5036 C   0  0  0  0  0  0  0  0  0  0  0  0
    1.6373   -1.2724    0.1052 C   0  0  0  0  0  0  0  0  0  0  0  0
    0.1020   -1.2656   -0.0147 C   0  0  0  0  0  0  0  0  0  0  0  0
   -2.3664   -0.8285   -1.2849 H   0  0  0  0  0  0  0  0  0  0  0  0
   -2.3689    0.8361   -1.2795 H   0  0  0  0  0  0  0  0  0  0  0  0
   -3.6761   -0.0001   -0.6994 H   0  0  0  0  0  0  0  0  0  0  0  0
   -2.4165   -0.8777    1.1688 H   0  0  0  0  0  0  0  0  0  0  0  0
   -2.4176    0.8700    1.1738 H   0  0  0  0  0  0  0  0  0  0  0  0
   -0.1813   -0.0017    1.6908 H   0  0  0  0  0  0  0  0  0  0  0  0
   -0.3357    2.1680    0.4310 H   0  0  0  0  0  0  0  0  0  0  0  0
   -0.1784    1.2920   -1.0712 H   0  0  0  0  0  0  0  0  0  0  0  0
    1.9193    1.3448    1.1636 H   0  0  0  0  0  0  0  0  0  0  0  0
    2.0547    2.1713   -0.3673 H   0  0  0  0  0  0  0  0  0  0  0  0
    3.3434    0.0017   -0.3735 H   0  0  0  0  0  0  0  0  0  0  0  0
    2.0904    0.0018   -1.5881 H   0  0  0  0  0  0  0  0  0  0  0  0
    1.9207   -1.3449    1.1620 H   0  0  0  0  0  0  0  0  0  0  0  0
    2.0572   -2.1694   -0.3698 H   0  0  0  0  0  0  0  0  0  0  0  0
   -0.3332   -2.1700    0.4281 H   0  0  0  0  0  0  0  0  0  0  0  0
   -0.1769   -1.2918   -1.0730 H   0  0  0  0  0  0  0  0  0  0  0  0
  1  2  1  0  0  0  0
  2  3  1  0  0  0  0
  3  4  1  0  0  0  0
  4  5  1  0  0  0  0
  5  6  1  0  0  0  0
  6  7  1  0  0  0  0
  3  8  1  0  0  0  0
  7  8  1  0  0  0  0
  1  9  1  0  0  0  0
  1 10  1  0  0  0  0
  1 11  1  0  0  0  0
  2 12  1  0  0  0  0
  2 13  1  0  0  0  0
  3 14  1  0  0  0  0
  4 15  1  0  0  0  0
  4 16  1  0  0  0  0
  5 17  1  0  0  0  0
  5 18  1  0  0  0  0
  6 19  1  0  0  0  0
  6 20  1  0  0  0  0
  7 21  1  0  0  0  0
  7 22  1  0  0  0  0
  8 23  1  0  0  0  0
  8 24  1  0  0  0  0
M  CHG  1   1   1
M  END
