 xtb: 6.5.1 (fef0646)
          01232318593D

 13 12  0     0  0            999 V2000
    0.9980    0.1802    0.0938 N   0  0  0  0  0  0  0  0  0  0  0  0
    2.4807    0.0126    0.0341 C   0  0  0  0  0  0  0  0  0  0  0  0
    3.0205    0.9844   -1.0171 C   0  0  0  0  0  0  0  0  0  0  0  0
    2.4623    2.3049   -0.7775 C   0  0  0  0  0  0  0  0  0  0  0  0
    1.9075    3.3375   -0.5290 C   0  0  0  0  0  0  0  0  0  0  0  0
    0.5852   -0.2364    0.9355 H   0  0  0  0  0  0  0  0  0  0  0  0
    0.5466   -0.2247   -0.7357 H   0  0  0  0  0  0  0  0  0  0  0  0
    0.8415    1.2130    0.0779 H   0  0  0  0  0  0  0  0  0  0  0  0
    2.7325   -1.0193   -0.2088 H   0  0  0  0  0  0  0  0  0  0  0  0
    2.8902    0.2601    1.0149 H   0  0  0  0  0  0  0  0  0  0  0  0
    2.7591    0.6579   -2.0268 H   0  0  0  0  0  0  0  0  0  0  0  0
    4.1085    1.0310   -0.9539 H   0  0  0  0  0  0  0  0  0  0  0  0
    1.4991    4.2888   -0.3506 H   0  0  0  0  0  0  0  0  0  0  0  0
  1  2  1  0  0  0  0
  2  3  1  0  0  0  0
  3  4  1  0  0  0  0
  4  5  3  0  0  0  0
  1  6  1  0  0  0  0
  1  7  1  0  0  0  0
  1  8  1  0  0  0  0
  2  9  1  0  0  0  0
  2 10  1  0  0  0  0
  3 11  1  0  0  0  0
  3 12  1  0  0  0  0
  5 13  1  0  0  0  0
M  CHG  1   1   1
M  END
