19
 xtb: 6.5.1 (fef0646)
N           -0.63668113116511       -2.12272857490938        0.88808412427643
C           -0.38214151915759       -2.33924320952526       -0.56301422390013
C           -0.25478025638757       -1.01998283011728       -1.32143480467573
C            0.80333327246235       -0.14123481436252       -0.75313911452623
C            2.13510173678163       -0.25251910094107       -1.00006310645292
C            2.92230091072156        0.71272644939945       -0.30704006511201
C            2.18270647979173        1.54734633883712        0.45966023952956
S            0.49361234631115        1.19185080608885        0.33619207549450
Cl          -2.85853678157497        0.63082015630398        0.58634934024511
H           -1.48933320957891       -1.42756775523811        0.97689147297359
H            0.11398160317059       -1.60232680434292        1.34895126982160
H           -0.89832215471368       -2.93198467751330        1.42511212969902
H           -1.18630246949245       -2.94994573692847       -0.97656408489889
H            0.52747193999557       -2.92626892373899       -0.62143802345516
H           -1.18999054708739       -0.48781094630886       -1.32945888924250
H           -0.01141586392440       -1.23863526773638       -2.38123962920846
H            2.55708496785047       -0.95282552838685       -1.71208206462697
H            3.99584042855654        0.81903821952932       -0.43746847732910
H            2.57277918161674        2.33817952114194        1.07516529513485
