19
 xtb: 6.5.1 (fef0646)
N           -1.68630993741766       -1.86902088099688        0.95075908792302
C           -2.41398644190699       -1.10808024975990       -0.09968704454991
C           -2.26101877060897        0.40242414027190        0.06620944193544
C           -0.85723407645772        0.87221760914171       -0.09529575357564
C           -0.10829848631351        1.47359590281778        0.86402041590268
C            1.20080871627445        1.83144238296397        0.42552304070525
C            1.44151695095034        1.49759329016121       -0.86184007817846
S            0.07036410333434        0.70776314276597       -1.55603536535980
Cl           1.99749082343124       -1.56185698122444        0.80194499305456
H           -0.62683471796759       -1.66085891667732        0.90668529758654
H           -1.75349814079662       -2.88505278625493        0.87633626200498
H           -1.95361550771987       -1.58977635209262        1.90318848017432
H           -3.44246694629557       -1.41664649696997       -0.05983846012819
H           -2.02145509689286       -1.42755782413384       -1.07749393344273
H           -2.62490162585478        0.69645249225906        1.04342910203390
H           -2.88650079678140        0.90461891338894       -0.67091075911759
H           -0.44516708085073        1.60342517096439        1.87108562203654
H            1.94561800161038        2.27418012615615        1.06616476036323
H            2.35495815676576        1.69587601494755       -1.40541069518362
