 xtb: 6.5.1 (fef0646)
          02032320193D

 19 18  0     0  0            999 V2000
   -1.6002   -1.7647   -1.1695 N   0  0  0  0  0  0  0  0  0  0  0  0
   -2.3730   -1.1344   -0.0627 C   0  0  0  0  0  0  0  0  0  0  0  0
   -2.2458    0.3876   -0.0576 C   0  0  0  0  0  0  0  0  0  0  0  0
   -0.8514    0.8517    0.1766 C   0  0  0  0  0  0  0  0  0  0  0  0
   -0.0647    1.4881   -0.7266 C   0  0  0  0  0  0  0  0  0  0  0  0
    1.2296    1.8171   -0.2259 C   0  0  0  0  0  0  0  0  0  0  0  0
    1.4213    1.4259    1.0523 C   0  0  0  0  0  0  0  0  0  0  0  0
    0.0124    0.6419    1.6765 S   0  0  0  0  0  0  0  0  0  0  0  0
    1.9179   -1.4796   -0.9700 Cl  0  0  0  0  0  0  0  0  0  0  0  0
   -1.8976   -1.3919   -2.0844 H   0  0  0  0  0  0  0  0  0  0  0  0
   -1.7202   -2.7872   -1.1899 H   0  0  0  0  0  0  0  0  0  0  0  0
   -0.5914   -1.5725   -1.0720 H   0  0  0  0  0  0  0  0  0  0  0  0
   -2.0259   -1.5335    0.8974 H   0  0  0  0  0  0  0  0  0  0  0  0
   -3.4275   -1.4267   -0.1413 H   0  0  0  0  0  0  0  0  0  0  0  0
   -2.8954    0.8241    0.7102 H   0  0  0  0  0  0  0  0  0  0  0  0
   -2.6037    0.7893   -1.0117 H   0  0  0  0  0  0  0  0  0  0  0  0
   -0.3907    1.7230   -1.7280 H   0  0  0  0  0  0  0  0  0  0  0  0
    1.9792    2.3256   -0.8141 H   0  0  0  0  0  0  0  0  0  0  0  0
    2.3208    1.5722    1.6199 H   0  0  0  0  0  0  0  0  0  0  0  0
  1  2  1  0  0  0  0
  2  3  1  0  0  0  0
  3  4  1  0  0  0  0
  4  5  2  0  0  0  0
  5  6  4  0  0  0  0
  6  7  2  0  0  0  0
  4  8  1  0  0  0  0
  7  8  1  0  0  0  0
  1 10  1  0  0  0  0
  1 11  1  0  0  0  0
  1 12  1  0  0  0  0
  2 13  1  0  0  0  0
  2 14  1  0  0  0  0
  3 15  1  0  0  0  0
  3 16  1  0  0  0  0
  5 17  1  0  0  0  0
  6 18  1  0  0  0  0
  7 19  1  0  0  0  0
M  END
