28
0.0
N           -2.83555  -0.73065   0.22637
C           -2.06958  -1.76398  -0.52856
C           -0.72379  -2.08404   0.11177
C            0.25565  -0.89634   0.17062
C            0.65853  -0.38778  -1.23509
C            1.63982   0.79490  -1.15251
C            2.88819   0.42651  -0.33307
C            2.49754  -0.07074   1.06855
C            1.52668  -1.25892   0.97853
Cl          -1.27127   2.40181   0.25959
H           -2.95887  -1.01111   1.21454
H           -3.77752  -0.57533  -0.17356
H           -2.34811   0.18231   0.22503
H           -1.92916  -1.43426  -1.56226
H           -2.67594  -2.67730  -0.59923
H           -0.23668  -2.90950  -0.42233
H           -0.89227  -2.45672   1.12928
H           -0.23892  -0.06462   0.69615
H           -0.23171  -0.11064  -1.81366
H            1.12113  -1.21353  -1.78814
H            1.13838   1.65074  -0.68315
H            1.92080   1.13829  -2.15813
H            3.57830   1.27914  -0.26710
H            3.44615  -0.36105  -0.85556
H            2.01978   0.74671   1.62370
H            3.38971  -0.33827   1.65214
H            1.25160  -1.62211   1.97753
H            2.02427  -2.10406   0.48842
