  20

 N          0.8524000000        0.0223100000       -0.0066800000
 C          2.3313400000        0.0771400000       -0.0752700000
 C          2.9178500000       -0.3797000000        1.2547900000
 C          4.4499100000       -0.3537900000        1.2664800000
 C          5.0391200000        1.0535600000        1.1197500000
 C          6.5492600000        1.0222500000        1.1307100000
 O          7.1034900000        2.1882100000        1.5174400000
 O          7.2116800000        0.0637200000        0.7688400000
 H          0.4328800000        0.3407800000       -0.8901500000
 H          0.4752300000        0.6175600000        0.7429900000
 H          0.5152600000       -0.9363300000        0.1582400000
 H          2.5855100000        1.1146300000       -0.3062500000
 H          2.6390400000       -0.5696200000       -0.9018100000
 H          2.5876100000       -1.4058500000        1.4639900000
 H          2.5360100000        0.2439500000        2.0719700000
 H          4.8288800000       -1.0086200000        0.4717300000
 H          4.7997700000       -0.7883700000        2.2122800000
 H          4.6804300000        1.6782200000        1.9443500000
 H          4.7367200000        1.5097700000        0.1721200000
 H          6.4851300000        2.8980900000        1.7742900000
