 xtb: 6.5.1 (fef0646)
          01232314273D

 16 14  0     0  0            999 V2000
    1.0106   -0.1658   -0.0587 N   0  0  0  0  0  0  0  0  0  0  0  0
    2.4613   -0.2687   -0.1130 C   0  0  0  0  0  0  0  0  0  0  0  0
    2.9724   -1.5644   -0.7367 C   0  0  0  0  0  0  0  0  0  0  0  0
    2.3759   -1.7196   -2.4649 S   0  0  0  0  0  0  0  0  0  0  0  0
    3.3246   -3.1830   -2.9491 C   0  0  0  0  0  0  0  0  0  0  0  0
    0.2429    2.2909    1.3743 Cl  0  0  0  0  0  0  0  0  0  0  0  0
    0.5878    1.1657    0.6973 H   0  0  0  0  0  0  0  0  0  0  0  0
    0.6115   -0.9475    0.4528 H   0  0  0  0  0  0  0  0  0  0  0  0
    0.6244   -0.1699   -0.9978 H   0  0  0  0  0  0  0  0  0  0  0  0
    2.8454   -0.1904    0.9079 H   0  0  0  0  0  0  0  0  0  0  0  0
    2.8318    0.5825   -0.6878 H   0  0  0  0  0  0  0  0  0  0  0  0
    2.6139   -2.4344   -0.1816 H   0  0  0  0  0  0  0  0  0  0  0  0
    4.0621   -1.5718   -0.7606 H   0  0  0  0  0  0  0  0  0  0  0  0
    3.0513   -3.4066   -3.9750 H   0  0  0  0  0  0  0  0  0  0  0  0
    3.0637   -4.0175   -2.3036 H   0  0  0  0  0  0  0  0  0  0  0  0
    4.3873   -2.9645   -2.8854 H   0  0  0  0  0  0  0  0  0  0  0  0
  1  2  1  0  0  0  0
  2  3  1  0  0  0  0
  3  4  1  0  0  0  0
  4  5  1  0  0  0  0
  6  7  1  0  0  0  0
  1  8  1  0  0  0  0
  1  9  1  0  0  0  0
  2 10  1  0  0  0  0
  2 11  1  0  0  0  0
  3 12  1  0  0  0  0
  3 13  1  0  0  0  0
  5 14  1  0  0  0  0
  5 15  1  0  0  0  0
  5 16  1  0  0  0  0
M  END
