30
1.298
N           -3.57533   1.26758   0.14728
C           -2.26350   1.69493  -0.42193
C           -1.08530   1.04598   0.29362
C            0.26750   1.44451  -0.29739
C            1.44883   0.79569   0.42519
C            2.79932   1.17112  -0.18531
C            3.99859   0.58373   0.56426
C            4.03733  -0.94761   0.59278
C            4.12957  -1.57607  -0.79009
Cl          -3.67757  -2.23120  -0.11984
H           -4.37117   1.69416  -0.34706
H           -3.64543   1.52232   1.14155
H           -3.67639   0.24034   0.08498
H           -2.17268   2.78659  -0.37185
H           -2.22646   1.44961  -1.48989
H           -1.19408  -0.04449   0.26352
H           -1.11437   1.30406   1.35838
H            0.37395   2.53564  -0.27324
H            0.29659   1.17956  -1.36120
H            1.32400  -0.29307   0.41641
H            1.43220   1.07650   1.48527
H            2.88175   2.26523  -0.22059
H            2.82437   0.85583  -1.23471
H            4.00082   0.97221   1.59092
H            4.92959   0.95392   0.11568
H            3.15243  -1.32863   1.11799
H            4.88762  -1.28108   1.20387
H            4.21013  -2.66443  -0.74084
H            5.00149  -1.20780  -1.33378
H            3.25099  -1.34621  -1.39513
