17
0.0
N           -1.68234  -1.61683  -0.45968
C           -2.55744  -0.82825   0.45158
C           -2.74213   0.62612   0.01979
C           -1.53482   1.54933   0.26778
C           -0.34486   1.33975  -0.65936
I            1.02504  -0.08713   0.05519
H           -0.70051  -1.22600  -0.48147
H           -2.04709  -1.61159  -1.42449
H           -1.61514  -2.60341  -0.16334
H           -2.15587  -0.86611   1.47132
H           -3.53377  -1.32917   0.50402
H           -3.61617   1.04008   0.54134
H           -3.00810   0.65493  -1.04283
H           -1.20592   1.45293   1.31103
H           -1.87081   2.59395   0.17504
H            0.27857   2.23513  -0.72994
H           -0.65491   1.07912  -1.67244
