18
 xtb: 6.5.1 (fef0646)
N           -0.65736786388794       -1.75495223482714        0.38205106566053
C            0.63979116478890       -1.91906830472485       -0.35013427444801
C            1.70647820628145       -0.92561050163572        0.10510142158675
C            1.32859248098435        0.52752464125336       -0.18079680831408
C            2.40592866762009        1.51706056846951        0.23775256388312
Cl          -2.12782581628465        1.05592927085143       -0.10960665492393
H           -1.27101014851024       -2.58308670196133        0.12371958722940
H           -1.06947091689909       -0.93335246597675        0.24057109811092
H           -0.44301942650439       -1.93706211386797        1.41308196004450
H            0.48841103251471       -1.82376209273510       -1.42436800671756
H            1.07826731939209       -2.96971513464894       -0.24752585642417
H            2.68782074145695       -1.14299138830893       -0.36862455419740
H            1.89945447986408       -1.05482491547252        1.18242087204512
H            0.37625260744075        0.73831484732630        0.32542018411451
H            1.10147701009660        0.61904721971445       -1.25305856547589
H            2.59389553125256        1.44603082813413        1.30601974060984
H            2.08830424789620        2.54367594980281        0.02512706855679
H            3.32805433113893        1.33260958439543       -0.28530488317900
