  18

 N         -3.3600436697       -1.3835145134       -0.0756084711
 C         -1.9949067058       -1.2250992140       -0.6450777367
 C         -1.0160146715       -0.6459269395        0.3671383832
 C          0.3912395554       -0.4536341655       -0.2032904562
 C          1.3725109865        0.1089581754        0.8080388065
 Br         3.1327678204        0.3578986410        0.0801649061
 Cl        -4.4224155063        1.7399117675        1.0334137316
 H         -4.0303862994       -1.7633232877       -0.7648580620
 H         -3.7267659239       -0.4706241222        0.2540870483
 H         -3.3518642254       -2.0199934518        0.7364110505
 H         -2.0374208327       -0.5807647821       -1.5317302395
 H         -1.6286998310       -2.1941168306       -1.0054490099
 H         -0.9717345863       -1.2965778314        1.2487061488
 H         -1.3972532321        0.3123245360        0.7402148762
 H          0.3507557932        0.2072002822       -1.0786865363
 H          0.7709796606       -1.4092535669       -0.5870396146
 H          1.4679839631       -0.5520089200        1.6723317838
 H          1.0362213304        1.0776140802        1.1844688177
          18
        -25.67776090
 N         -1.9886906640       -1.1661253611       -1.4745460145
 C         -0.6374927402       -1.0913160442       -0.8559715938
 C         -0.6628109909       -1.4582201006        0.6205486883
 C          0.7151523207       -1.4666254319        1.2905997448
 C          1.3632951801       -0.0928501446        1.3819009394
 Br         2.0946302606        0.5485967285       -0.2734447643
 Cl        -4.0629259232        0.9595269976        0.3304632518
 H         -1.9779381911       -0.8965360283       -2.4723278571
 H         -2.6490749981       -0.5343534047       -0.9835584277
 H         -2.3743862190       -2.1207629799       -1.4102667424
 H         -0.2349176699       -0.0797282363       -0.9827669270
 H          0.0536032536       -1.7522795857       -1.3927989871
 H         -1.1369940241       -2.4423010893        0.7284991517
 H         -1.3248598344       -0.7651986220        1.1536827975
 H          1.3843545915       -2.1411203496        0.7416904271
 H          0.6278314318       -1.8983365887        2.2981527200
 H          2.2019189475       -0.0938769862        2.0838052943
 H          0.6505094630        0.6535783442        1.7392115431
          18
        -25.68535949
 N         -0.9945601541        0.4200625461        1.4453646681
 C         -0.8962312780        1.8486275622        1.0524451797
 C         -0.8093511213        2.0483624058       -0.4586612067
 C          0.5299678171        1.6442645059       -1.0963721613
 C          0.7609947685        0.1369217795       -1.2299412039
 Br         1.8894485926       -0.6253817218        0.1301209663
 Cl        -3.5996409169       -1.0535282628       -0.2754891361
 H         -1.0955523247        0.2942210404        2.4661342483
 H         -0.1378454287       -0.0793248678        1.1476619845
 H         -1.7955523684       -0.0399655033        0.9830176684
 H         -0.0258326943        2.3068932494        1.5375431664
 H         -1.7682222872        2.3822949140        1.4527353228
 H         -1.0101764590        3.1044175175       -0.6877652679
 H         -1.6221113307        1.4944502081       -0.9433560682
 H          1.3564720034        2.0825043690       -0.5228858696
 H          0.6024176323        2.1069941476       -2.0918413091
 H          1.2691417494       -0.1078731707       -2.1675629489
 H         -0.1838175865       -0.4113907970       -1.2388144879
          18
        -25.68564780
 N         -0.9863389573        0.4367644320        1.4583680832
 C         -0.8942848062        1.8596599812        1.0438817505
 C         -0.8246447743        2.0371620267       -0.4709158083
 C          0.5090686458        1.6290544024       -1.1177722455
 C          0.7456826931        0.1210005220       -1.2308565678
 Br         1.8852168420       -0.6189901106        0.1321456302
 Cl        -3.5741899336       -1.0631427231       -0.2689636926
 H         -1.0819877838        0.3242705891        2.4813156482
 H         -0.1299789824       -0.0646076140        1.1627789513
 H         -1.7881341789       -0.0310768850        1.0052652110
 H         -0.0196743228        2.3265736434        1.5128836886
 H         -1.7628523850        2.3977885723        1.4457426611
 H         -1.0324075118        3.0887483902       -0.7137199208
 H         -1.6402829316        1.4728494715       -0.9383706693
 H          1.3401211735        2.0799352642       -0.5609880218
 H          0.5672441081        2.0762923528       -2.1212254878
 H          1.2505665122       -0.1344860052       -2.1674033129
 H         -0.1971192005       -0.4307043331       -1.2281481078
          18
        -25.68576157
 N         -0.9860184446        0.4317273666        1.4611106609
 C         -0.8948630386        1.8541119809        1.0444552468
 C         -0.8316796122        2.0290295807       -0.4710050347
 C          0.5008175012        1.6232326320       -1.1216429139
 C          0.7416955273        0.1155191236       -1.2299620521
 Br         1.8894848892       -0.6144211649        0.1314610382
 Cl        -3.5759382272       -1.0609379370       -0.2678001776
 H         -1.0812214066        0.3207114584        2.4842998536
 H         -0.1292814487       -0.0692113722        1.1659193005
 H         -1.7875101243       -0.0372019751        1.0085474658
 H         -0.0179126127        2.3211922165        1.5088772983
 H         -1.7615253933        2.3931638518        1.4491285357
 H         -1.0436318327        3.0793873901       -0.7153682983
 H         -1.6472265479        1.4611917414       -0.9342708273
 H          1.3324979265        2.0787723528       -0.5696312672
 H          0.5540140647        2.0672319288       -2.1268307269
 H          1.2418350204       -0.1426079692       -2.1682907083
 H         -0.1992957869       -0.4390894933       -1.2193218351
