 xtb: 6.5.1 (fef0646)
          01242316573D

 25 25  0     0  0            999 V2000
   -2.6299   -1.9490    0.5699 N   0  0  0  0  0  0  0  0  0  0  0  0
   -1.7822   -2.0051   -0.6560 C   0  0  0  0  0  0  0  0  0  0  0  0
   -0.6300   -1.0524   -0.5852 C   0  0  0  0  0  0  0  0  0  0  0  0
   -0.8294    0.3140   -0.8589 C   0  0  0  0  0  0  0  0  0  0  0  0
    0.1952    1.2073   -0.7679 C   0  0  0  0  0  0  0  0  0  0  0  0
    0.6130   -1.4834   -0.2090 C   0  0  0  0  0  0  0  0  0  0  0  0
    1.7010   -0.5869   -0.1061 C   0  0  0  0  0  0  0  0  0  0  0  0
    1.4892    0.7829   -0.3910 C   0  0  0  0  0  0  0  0  0  0  0  0
    2.5770    1.6800   -0.2854 C   0  0  0  0  0  0  0  0  0  0  0  0
    3.8106    1.2343    0.0840 C   0  0  0  0  0  0  0  0  0  0  0  0
    4.0206   -0.1227    0.3660 C   0  0  0  0  0  0  0  0  0  0  0  0
    2.9940   -1.0141    0.2745 C   0  0  0  0  0  0  0  0  0  0  0  0
   -3.8115    1.3536    0.8656 Cl  0  0  0  0  0  0  0  0  0  0  0  0
   -3.4253   -2.6010    0.5248 H   0  0  0  0  0  0  0  0  0  0  0  0
   -3.0056   -0.9946    0.7022 H   0  0  0  0  0  0  0  0  0  0  0  0
   -2.0751   -2.1762    1.4056 H   0  0  0  0  0  0  0  0  0  0  0  0
   -2.3876   -1.7775   -1.5408 H   0  0  0  0  0  0  0  0  0  0  0  0
   -1.4095   -3.0242   -0.8080 H   0  0  0  0  0  0  0  0  0  0  0  0
   -1.8148    0.6481   -1.1368 H   0  0  0  0  0  0  0  0  0  0  0  0
    0.0293    2.2499   -0.9798 H   0  0  0  0  0  0  0  0  0  0  0  0
    0.7698   -2.5235    0.0165 H   0  0  0  0  0  0  0  0  0  0  0  0
    2.4161    2.7227   -0.5012 H   0  0  0  0  0  0  0  0  0  0  0  0
    4.6328    1.9273    0.1614 H   0  0  0  0  0  0  0  0  0  0  0  0
    5.0024   -0.4600    0.6571 H   0  0  0  0  0  0  0  0  0  0  0  0
    3.1559   -2.0565    0.4914 H   0  0  0  0  0  0  0  0  0  0  0  0
  1  2  1  0  0  0  0
  2  3  1  0  0  0  0
  3  4  4  0  0  0  0
  4  5  2  0  0  0  0
  3  6  2  0  0  0  0
  6  7  4  0  0  0  0
  5  8  4  0  0  0  0
  7  8  4  0  0  0  0
  8  9  4  0  0  0  0
  9 10  2  0  0  0  0
 10 11  4  0  0  0  0
  7 12  4  0  0  0  0
 11 12  2  0  0  0  0
  1 14  1  0  0  0  0
  1 15  1  0  0  0  0
  1 16  1  0  0  0  0
  2 17  1  0  0  0  0
  2 18  1  0  0  0  0
  4 19  1  0  0  0  0
  5 20  1  0  0  0  0
  6 21  1  0  0  0  0
  9 22  1  0  0  0  0
 10 23  1  0  0  0  0
 11 24  1  0  0  0  0
 12 25  1  0  0  0  0
M  END
