21

N          0.92455       -1.98803       -1.84983
C          2.41032       -2.02776       -1.88741
C          2.98411       -0.96685       -0.94988
C          4.48866       -0.96357       -0.94790
C          5.20903       -0.19488       -1.86672
F          4.53450        0.52554       -2.77388
C          6.60233       -0.18436       -1.86496
F          7.26254        0.55791       -2.76328
C          7.29981       -0.95323       -0.94320
F          8.63909       -0.95505       -0.94628
C          6.60456       -1.73472       -0.02959
F          7.26724       -2.49453        0.85183
C          5.21115       -1.74003       -0.03861
F          4.53986       -2.51560        0.82460
H          0.52143       -2.69764       -2.47793
H          0.55499       -1.07595       -2.15264
H          0.55654       -2.17862       -0.90736
H          2.70349       -1.85848       -2.92793
H          2.70581       -3.03948       -1.59171
H          2.61728       -1.12952        0.07191
H          2.61828        0.02739       -1.23714
