 xtb: 6.5.1 (fef0646)
          01242315293D

 36 36  0     0  0            999 V2000
    1.0079    1.5683    1.2847 N   0  0  0  0  0  0  0  0  0  0  0  0
    2.4539    1.5558    1.5821 C   0  0  0  0  0  0  0  0  0  0  0  0
    2.9980    0.1352    1.4287 C   0  0  0  0  0  0  0  0  0  0  0  0
    4.4975    0.1286    1.5100 C   0  0  0  0  0  0  0  0  0  0  0  0
    5.1526   -0.1367    2.7069 C   0  0  0  0  0  0  0  0  0  0  0  0
    6.5309   -0.1337    2.7791 C   0  0  0  0  0  0  0  0  0  0  0  0
    7.3058    0.1426    1.6500 C   0  0  0  0  0  0  0  0  0  0  0  0
    8.7563    0.1381    1.6572 C   0  0  0  0  0  0  0  0  0  0  0  0
    9.5419   -0.3497    2.6282 C   0  0  0  0  0  0  0  0  0  0  0  0
   10.9923   -0.3823    2.6127 C   0  0  0  0  0  0  0  0  0  0  0  0
   11.7562    0.3402    1.6917 C   0  0  0  0  0  0  0  0  0  0  0  0
   13.1285    0.2416    1.7353 C   0  0  0  0  0  0  0  0  0  0  0  0
   13.8602    0.9584    0.8255 F   0  0  0  0  0  0  0  0  0  0  0  0
   13.8010   -0.5434    2.6524 C   0  0  0  0  0  0  0  0  0  0  0  0
   13.0432   -1.2524    3.5711 C   0  0  0  0  0  0  0  0  0  0  0  0
   11.6647   -1.1689    3.5545 C   0  0  0  0  0  0  0  0  0  0  0  0
    6.6394    0.4318    0.4547 C   0  0  0  0  0  0  0  0  0  0  0  0
    5.2619    0.4208    0.3862 C   0  0  0  0  0  0  0  0  0  0  0  0
    0.6263    0.5173   -1.5628 Cl  0  0  0  0  0  0  0  0  0  0  0  0
    0.6170    2.5104    1.3513 H   0  0  0  0  0  0  0  0  0  0  0  0
    0.5006    0.9368    1.9097 H   0  0  0  0  0  0  0  0  0  0  0  0
    0.8517    1.2229    0.3025 H   0  0  0  0  0  0  0  0  0  0  0  0
    2.6283    1.9210    2.5950 H   0  0  0  0  0  0  0  0  0  0  0  0
    2.9613    2.2101    0.8732 H   0  0  0  0  0  0  0  0  0  0  0  0
    2.6824   -0.2432    0.4544 H   0  0  0  0  0  0  0  0  0  0  0  0
    2.5871   -0.5098    2.2053 H   0  0  0  0  0  0  0  0  0  0  0  0
    4.5765   -0.3576    3.5930 H   0  0  0  0  0  0  0  0  0  0  0  0
    7.0112   -0.3379    3.7229 H   0  0  0  0  0  0  0  0  0  0  0  0
    9.2082    0.5405    0.7601 H   0  0  0  0  0  0  0  0  0  0  0  0
    9.0934   -0.8027    3.5012 H   0  0  0  0  0  0  0  0  0  0  0  0
   11.3000    0.9819    0.9558 H   0  0  0  0  0  0  0  0  0  0  0  0
   14.8774   -0.5877    2.6416 H   0  0  0  0  0  0  0  0  0  0  0  0
   13.5388   -1.8710    4.3027 H   0  0  0  0  0  0  0  0  0  0  0  0
   11.0898   -1.7283    4.2769 H   0  0  0  0  0  0  0  0  0  0  0  0
    7.2168    0.6529   -0.4320 H   0  0  0  0  0  0  0  0  0  0  0  0
    4.7677    0.6298   -0.5521 H   0  0  0  0  0  0  0  0  0  0  0  0
  1  2  1  0  0  0  0
  2  3  1  0  0  0  0
  3  4  1  0  0  0  0
  4  5  4  0  0  0  0
  5  6  4  0  0  0  0
  6  7  4  0  0  0  0
  7  8  1  0  0  0  0
  8  9  2  0  0  0  0
  9 10  1  0  0  0  0
 10 11  4  0  0  0  0
 11 12  4  0  0  0  0
 12 13  1  0  0  0  0
 12 14  4  0  0  0  0
 14 15  4  0  0  0  0
 10 16  4  0  0  0  0
 15 16  4  0  0  0  0
  7 17  4  0  0  0  0
  4 18  4  0  0  0  0
 17 18  4  0  0  0  0
  1 20  1  0  0  0  0
  1 21  1  0  0  0  0
  1 22  1  0  0  0  0
  2 23  1  0  0  0  0
  2 24  1  0  0  0  0
  3 25  1  0  0  0  0
  3 26  1  0  0  0  0
  5 27  1  0  0  0  0
  6 28  1  0  0  0  0
  8 29  1  0  0  0  0
  9 30  1  0  0  0  0
 11 31  1  0  0  0  0
 14 32  1  0  0  0  0
 15 33  1  0  0  0  0
 16 34  1  0  0  0  0
 17 35  1  0  0  0  0
 18 36  1  0  0  0  0
M  END
