36
2.155
N           -4.99266   0.01528  -1.08977
C           -5.30016   0.60286   0.24534
C           -4.37749   1.76807   0.59619
C           -2.93079   1.37499   0.65199
C           -2.44200   0.63423   1.71794
C           -1.11962   0.24974   1.76276
C           -0.23797   0.58823   0.73562
C            1.15282   0.15668   0.80529
C            2.01878   0.18135  -0.21811
C            3.41024  -0.24933  -0.15825
C            4.14741  -0.35888  -1.33904
C            5.46553  -0.76112  -1.31799
C            6.07911  -1.06070  -0.11769
C            5.36933  -0.95480   1.06223
C            4.05042  -0.55342   1.04503
C           -0.73549   1.33720  -0.33155
C           -2.05919   1.71863  -0.37148
Cl          -1.90339  -1.74267  -1.21703
H           -5.65664  -0.72907  -1.34589
H           -4.04378  -0.39704  -1.10312
H           -5.02621   0.73528  -1.82434
H           -5.21763  -0.17629   1.01199
H           -6.34724   0.92963   0.26880
H           -4.66383   2.20856   1.55839
H           -4.50420   2.56913  -0.14003
H           -3.11208   0.35902   2.51522
H           -0.75547  -0.32848   2.59519
H            1.48206  -0.23245   1.75219
H            1.67024   0.52122  -1.17718
H            3.67075  -0.12690  -2.27657
H            6.01859  -0.84203  -2.24000
H            7.11037  -1.37475  -0.10168
H            5.84930  -1.18487   1.99994
H            3.51335  -0.46296   1.97306
H           -0.07637   1.63032  -1.13002
H           -2.42899   2.29163  -1.20509
