36
1.99
N           -5.12597   0.30368  -0.94271
C           -5.27219   0.15016   0.53275
C           -4.40425   1.13779   1.30958
C           -2.93895   0.97801   1.03004
C           -2.25818   1.89703   0.24445
C           -0.91687   1.73648  -0.02663
C           -0.20693   0.64492   0.47506
C            1.20749   0.50027   0.15447
C            2.01893  -0.45576   0.62916
C            3.43182  -0.60345   0.30105
C            4.05433   0.15088  -0.69576
C            5.39279  -0.01948  -0.97941
C            6.13967  -0.94537  -0.27787
C            5.54237  -1.70396   0.70931
C            4.20447  -1.53675   0.99530
C           -0.89978  -0.27797   1.25983
C           -2.24104  -0.11126   1.52988
Cl          -1.97174  -0.71962  -2.19051
H           -5.75732  -0.32381  -1.46054
H           -4.15945   0.08910  -1.24348
H           -5.33202   1.26929  -1.23269
H           -5.01015  -0.87521   0.81835
H           -6.32636   0.27310   0.81081
H           -4.57397   1.03313   2.38757
H           -4.70749   2.16150   1.06484
H           -2.79146   2.74254  -0.15673
H           -0.40254   2.45848  -0.63828
H            1.61654   1.23792  -0.51242
H            1.61807  -1.17660   1.31895
H            3.48274   0.86743  -1.25889
H            5.85798   0.57064  -1.75267
H            7.18615  -1.07678  -0.50151
H            6.12366  -2.42823   1.25709
H            3.74122  -2.12927   1.76650
H           -0.38630  -1.13734   1.65375
H           -2.76343  -0.83344   2.13468
