36
1.326
N           -5.74820   0.31778   0.19971
C           -4.27342   0.22087   0.00068
C           -3.49446   1.08071   0.98962
C           -2.00900   0.99313   0.79193
C           -1.35565   1.86517  -0.06667
C            0.00219   1.76240  -0.27723
C            0.75640   0.77555   0.35889
C            2.19047   0.69569   0.10937
C            3.00680  -0.26648   0.56297
C            4.44033  -0.34743   0.30965
C            5.15061   0.67373  -0.32517
C            6.50653   0.55956  -0.54747
C            7.18468  -0.57286  -0.14135
C            6.50174  -1.59270   0.49128
C            5.14630  -1.48189   0.71546
C            0.09102  -0.10181   1.21638
C           -1.26744   0.00571   1.42401
Cl          -7.41985  -1.71617  -2.14237
H           -6.01212   0.01413   1.14659
H           -6.26627  -0.27080  -0.47707
H           -6.07107   1.28782   0.08425
H           -4.01669   0.51501  -1.02376
H           -3.95392  -0.82410   0.09030
H           -3.74471   0.78664   2.01444
H           -3.81353   2.12511   0.90462
H           -1.92470   2.62666  -0.57338
H            0.49523   2.44797  -0.94571
H            2.60489   1.47465  -0.50514
H            2.58741  -1.06247   1.15181
H            4.63832   1.56629  -0.63839
H            7.03996   1.35734  -1.03900
H            8.24490  -0.65991  -0.31671
H            7.02972  -2.47708   0.81007
H            4.61592  -2.27966   1.20814
H            0.64263  -0.87097   1.72782
H           -1.76875  -0.68363   2.08263
