36
1.369
N           -5.73274   0.65452  -0.08579
C           -4.27838   0.32414  -0.10209
C           -3.48285   1.14520   0.90646
C           -2.01719   0.82161   0.89409
C           -1.14879   1.49947   0.05076
C            0.19235   1.18357   0.01287
C            0.71252   0.16866   0.81741
C            2.12337  -0.19790   0.80980
C            3.07347   0.37558   0.05725
C            4.48447   0.00873   0.05003
C            5.35784   0.66067  -0.82301
C            6.69801   0.34052  -0.85762
C            7.19825  -0.63751  -0.02099
C            6.35231  -1.29396   0.85103
C            5.01113  -0.97641   0.88832
C           -0.16967  -0.51494   1.65525
C           -1.50955  -0.19513   1.68942
Cl          -7.43523  -1.32341  -2.45698
H           -6.13909   0.48005   0.84313
H           -6.26239   0.08957  -0.77354
H           -5.88663   1.64683  -0.30989
H           -3.87230   0.48368  -1.10784
H           -4.13736  -0.74414   0.10043
H           -3.88326   0.98559   1.91319
H           -3.62252   2.21328   0.70791
H           -1.53725   2.28039  -0.58155
H            0.84247   1.72796  -0.64895
H            2.40310  -1.00002   1.46879
H            2.79291   1.17432  -0.60557
H            4.97069   1.42376  -1.47706
H            7.35699   0.85429  -1.53901
H            8.24661  -0.88767  -0.04822
H            6.74265  -2.05712   1.50512
H            4.36624  -1.49468   1.57608
H            0.20972  -1.30520   2.28122
H           -2.17818  -0.73764   2.33657
