36
0.091
N           -4.43330   0.68795  -1.60387
C           -4.77128   1.58395  -0.46101
C           -4.10131   1.13693   0.83662
C           -2.60969   1.03641   0.71717
C           -1.80725   2.15645   0.87535
C           -0.43968   2.06906   0.73135
C            0.17502   0.85557   0.41961
C            1.62429   0.80089   0.27238
C            2.34805  -0.31820   0.12505
C            3.79723  -0.37281  -0.02547
C            4.44494  -1.60955   0.00236
C            5.81312  -1.69770  -0.13934
C            6.56646  -0.55371  -0.31440
C            5.94549   0.67929  -0.34884
C            4.57715   0.77138  -0.20702
C           -0.64058  -0.26394   0.24913
C           -2.00756  -0.17051   0.39363
Cl          -4.52233  -2.60645  -0.35785
H           -3.43452   0.76218  -1.84094
H           -4.97904   0.90658  -2.45310
H           -4.60713  -0.29648  -1.35034
H           -5.85986   1.62169  -0.33083
H           -4.46654   2.60917  -0.70190
H           -4.49943   0.16180   1.13759
H           -4.35328   1.81982   1.65649
H           -2.26721   3.10163   1.11092
H            0.17111   2.94666   0.86054
H            2.13715   1.74547   0.30388
H            1.83894  -1.26537   0.13261
H            3.85996  -2.50336   0.13965
H            6.29616  -2.66128  -0.11360
H            7.63659  -0.62317  -0.42567
H            6.53295   1.57248  -0.48913
H            4.10618   1.73795  -0.24818
H           -0.20146  -1.21060  -0.01273
H           -2.62796  -1.03836   0.24213
