16
 xtb: 6.5.1 (fef0646)
N            0.01958802467465       -0.79239294171144       -0.82493722928258
C            1.10686068681641       -0.31230695347415        0.07158775146836
C            1.13752529045267        1.22370475000803        0.26679631704002
C            2.66539667148113        1.19482329854079        0.02349427290546
C            2.51871370823777       -0.22861342018494       -0.56610585614619
Cl          -2.84195834090712       -0.37560760700303        0.45428949190824
H            0.22999217772594       -1.81186996894039       -1.09216000878183
H            0.12102745067475       -0.29005218826229       -1.76144684371197
H           -0.85641073497370       -0.69332807039817       -0.46271516868863
H            1.14363473106492       -0.86725076494018        1.01450773710748
H            0.83353304263882        1.54761561740540        1.25455171306723
H            0.58763570485794        1.74145544882779       -0.52419265866272
H            3.26307625786094        1.24850796831318        0.96034015895898
H            3.04209007343992        1.96694742152842       -0.68043828678969
H            3.28598207227238       -0.94396475274707       -0.16577786131203
H            2.54505937268393       -0.24611267907189       -1.65765946848773
