23
0.481
N           -2.51702   1.70422   0.44296
C           -1.50269   2.03227  -0.60027
C           -0.22061   1.29013  -0.38794
C            0.84173   1.88057   0.27992
C            2.00813   1.18073   0.50534
C            2.14943  -0.13655   0.07193
C            3.39756  -0.86040   0.32642
C            3.79364  -1.94034  -0.33327
C            1.07203  -0.72817  -0.58559
C           -0.09255  -0.02463  -0.80923
Cl          -3.00486  -1.77894   0.36675
H           -2.17003   1.95335   1.37872
H           -2.70847   0.68781   0.44841
H           -3.40847   2.19598   0.28949
H           -1.30793   3.11070  -0.60890
H           -1.89818   1.79612  -1.59467
H            0.74579   2.89612   0.62560
H            2.82759   1.65198   1.02132
H            4.03125  -0.46233   1.10289
H            3.21088  -2.35654  -1.13063
H            4.72092  -2.43149  -0.10800
H            1.14499  -1.75289  -0.90719
H           -0.92166  -0.49709  -1.30876
