23
 xtb: 6.5.1 (fef0646)
N           -2.53005611712689        1.64082014930535        0.43109837670892
C           -1.50510668525045        2.02319277382153       -0.58497805517261
C           -0.21774665709489        1.28799916064825       -0.37827617121985
C            0.86040069718967        1.89372930744161        0.25025734408424
C            2.02620398995478        1.19298214091949        0.47869928264091
C            2.15039907020926       -0.13813524816044        0.08349157040593
C            3.39375620989241       -0.87119642598877        0.33954901935533
C            3.80187662865869       -1.91898246083745       -0.36475734302172
C            1.05948292984918       -0.74332147980981       -0.53920125807939
C           -0.10525525085644       -0.04022369416085       -0.76286833160950
Cl          -3.00526972148288       -1.72556109148753        0.34312290610639
H           -2.17887363637473        1.92964184066448        1.37919212029591
H           -2.70794881516863        0.66800572150847        0.43583516987157
H           -3.41338037866456        2.17637418049110        0.28689616736478
H           -1.31230639598180        3.10872671927793       -0.59403688042139
H           -1.89392838755204        1.80119380270998       -1.59426521484390
H            0.75497559133519        2.90340996364261        0.60768482610833
H            2.83653832801984        1.65860629335049        1.00488371987673
H            4.02404154296128       -0.47689843268917        1.11750168632072
H            3.21876551557081       -2.33562235394747       -1.15159518690021
H            4.72073268698531       -2.43050592968648       -0.11791170738318
H            1.13848415220473       -1.76053511625103       -0.88423784643261
H           -0.92920048192489       -0.50488548343402       -1.28590046856163
