 xtb: 6.5.1 (fef0646)
          01242310043D

 15 13  0     0  0            999 V2000
    0.3447   -0.9313   -0.0371 N   0  0  0  0  0  0  0  0  0  0  0  0
    1.1150    0.3422    0.0031 C   0  0  0  0  0  0  0  0  0  0  0  0
    2.6205    0.1063   -0.0132 C   0  0  0  0  0  0  0  0  0  0  0  0
    3.4199    1.3993    0.0277 C   0  0  0  0  0  0  0  0  0  0  0  0
   -3.0944   -0.3245    0.0100 Cl  0  0  0  0  0  0  0  0  0  0  0  0
    0.5653   -1.4711   -0.8891 H   0  0  0  0  0  0  0  0  0  0  0  0
   -0.6816   -0.7680   -0.0250 H   0  0  0  0  0  0  0  0  0  0  0  0
    0.5756   -1.5295    0.7717 H   0  0  0  0  0  0  0  0  0  0  0  0
    0.8386    0.9141    0.8975 H   0  0  0  0  0  0  0  0  0  0  0  0
    0.8293    0.9747   -0.8461 H   0  0  0  0  0  0  0  0  0  0  0  0
    2.8848   -0.4760   -0.9059 H   0  0  0  0  0  0  0  0  0  0  0  0
    2.8940   -0.5366    0.8339 H   0  0  0  0  0  0  0  0  0  0  0  0
    3.1948    1.9751    0.9282 H   0  0  0  0  0  0  0  0  0  0  0  0
    3.1852    2.0365   -0.8280 H   0  0  0  0  0  0  0  0  0  0  0  0
    4.4977    1.2172    0.0154 H   0  0  0  0  0  0  0  0  0  0  0  0
  1  2  1  0  0  0  0
  2  3  1  0  0  0  0
  3  4  1  0  0  0  0
  1  6  1  0  0  0  0
  1  7  1  0  0  0  0
  1  8  1  0  0  0  0
  2  9  1  0  0  0  0
  2 10  1  0  0  0  0
  3 11  1  0  0  0  0
  3 12  1  0  0  0  0
  4 13  1  0  0  0  0
  4 14  1  0  0  0  0
  4 15  1  0  0  0  0
M  END
