37
 xtb: 6.5.1 (fef0646)
N           -3.12041144046469        1.35206403148130        1.13146539334769
C           -3.91453212678738        0.42200396846246        0.29041356064552
C           -3.76335730007608        0.76382964329882       -1.18708288729820
O           -2.41216617193020        1.06984949064008       -1.51680002524050
C           -1.49605701628090        0.05124779959399       -1.31854276562660
C           -0.14879844533162        0.42728038564587       -1.07382379476913
C            0.23778978506884        1.79189934018775       -1.06556255925633
C            1.51793285448603        2.16201644055488       -0.80522060273357
C            0.82215798316118       -0.56390266745280       -0.80681501390512
C            0.46492667811799       -1.93287528912505       -0.80558117389581
C           -0.86554887364297       -2.27812858720139       -1.07754061771370
C           -1.81280221917403       -1.31736416631440       -1.32541145972270
C            1.46614919924812       -2.90550672399930       -0.53055734389370
C            2.74759129712194       -2.54258426846106       -0.26848992689610
C            3.14000610520487       -1.17199449936079       -0.25910205435204
C            4.45057777379199       -0.76988793960314        0.00917891764671
C            4.79295362599521        0.56801084478721        0.00930079672197
C            3.84737902328356        1.53873577906409       -0.25488376239175
C            2.52211290592282        1.18974408360805       -0.52811889752412
C            2.16542983567441       -0.18072875063847       -0.53129461794213
Cl          -2.92036329665237        0.55677955164812        4.16208299663203
H           -3.50432646117747        2.35253942766455        0.97093797384082
H           -2.16280524924621        1.42101951226776        0.67972463648081
H           -3.07862330496867        1.14546002526981        2.06940764672959
H           -4.97557046616991        0.45307239574288        0.55929678649087
H           -3.56434128690759       -0.57893826037828        0.45996446284163
H           -4.34419880469800        1.64942901567696       -1.48394199656713
H           -4.12395350861718       -0.04674960969620       -1.87988368138814
H           -0.51448519607840        2.53202826654493       -1.28552230808729
H            1.79060028294180        3.20314589893248       -0.80444647235035
H           -1.13705528632271       -3.32327887097446       -1.08805134222963
H           -2.81863632097660       -1.62449007071469       -1.55506426575141
H            1.18914937241028       -3.94698352558123       -0.53398048277049
H            3.49346989402241       -3.29252323403126       -0.06241249226732
H            5.19616561714808       -1.51862632473949        0.21598620116518
H            5.80964360766059        0.85925828414244        0.21877268277569
H            4.12242412749602        2.58085088149360       -0.25032848312970
