25
0.688
N           -3.10896   1.50436  -0.82594
C           -1.79860   2.02815  -0.34152
C           -0.68922   0.99020  -0.44900
C            0.65936   1.49537   0.06691
C            1.74814   0.46902  -0.05357
C            1.94482  -0.47252   0.94658
C            2.92237  -1.43971   0.82139
C            3.71248  -1.48120  -0.30984
C            3.52093  -0.55615  -1.31625
C            2.54269   0.41032  -1.18966
Cl          -3.75161  -1.36846   1.08541
H           -3.05215   1.22951  -1.81584
H           -3.86473   2.19721  -0.73080
H           -3.37897   0.66280  -0.28825
H           -1.89427   2.35848   0.69969
H           -1.52367   2.92605  -0.90733
H           -0.58605   0.66680  -1.49108
H           -0.97670   0.08622   0.10009
H            0.56577   1.80532   1.11366
H            0.95025   2.40124  -0.47661
H            1.32141  -0.44345   1.82476
H            3.06687  -2.16441   1.60670
H            4.47571  -2.23649  -0.40828
H            4.13387  -0.58924  -2.20276
H            2.38631   1.12810  -1.97756
