25
 xtb: 6.5.1 (fef0646)
N           -3.11940503632425        1.44723186569037       -0.78798145834415
C           -1.81363414696016        2.00208319196494       -0.32336237564514
C           -0.68842836284115        0.98223829677418       -0.44524410655673
C            0.65206802945159        1.48664538425082        0.09227305425966
C            1.74502414737718        0.46591951844548       -0.03789274759129
C            1.98197020544092       -0.45165916701354        0.97666695608349
C            2.96074528180300       -1.41637038068416        0.83970687851937
C            3.71123709719064       -1.47989613171339       -0.31826315282565
C            3.47961915353757       -0.57859321158137       -1.33902054522326
C            2.50102901494324        0.38565144319087       -1.20002955345220
Cl          -3.72112422574714       -1.29162730429209        1.01056099335678
H           -3.05800926406701        1.21851401660993       -1.80688702262300
H           -3.87193412672894        2.17598405552906       -0.71438101234835
H           -3.37402037082017        0.64088396108025       -0.27874155401083
H           -1.89663205534970        2.34958486007717        0.70554349266765
H           -1.53459171193030        2.92041751622700       -0.90230958835532
H           -0.58286194211229        0.67066976438557       -1.49152950102286
H           -0.97516863186071        0.07999890901675        0.09560194731464
H            0.56044625332243        1.79732953693791        1.12222324296383
H            0.94842739336004        2.40188090008373       -0.46397447885343
H            1.34101468817443       -0.43269410676623        1.83961256975044
H            3.08700608420163       -2.15229885037241        1.61531697561501
H            4.47534350608055       -2.23576392489981       -0.41354217671939
H            4.11292137013486       -0.60076990819833       -2.21538254762961
H            2.36496774946439        1.11541596162538       -1.98376499352186
