22
 xtb: 6.5.1 (fef0646)
N           -2.78881553206998       -1.83821937232398        0.34700605088717
C           -1.37742562096757       -1.44547096932493        0.62588024220692
C           -0.72510152076751       -0.76074516874152       -0.57274719905201
C            0.67480160331235       -0.29727527956088       -0.29818515998928
C            1.76373049784817       -1.09170630143700       -0.62497702609765
C            3.04863062705955       -0.67296968852092       -0.34864266051145
C            3.27315174169136        0.54300091042271        0.27170031986714
F            4.54139627691332        0.95326573458375        0.54882776499201
C            2.18943968091022        1.33533100828878        0.60898622659012
C            0.90508458630809        0.91965745593195        0.32783771072333
Cl          -4.45978171130510        0.96777750865506       -0.45644621061160
H           -2.79945462322378       -2.54679236929641       -0.45636777218941
H           -3.33697180114260       -1.07523291264339        0.09840545469865
H           -3.19106409500112       -2.36219415975239        1.15304209126808
H           -0.74749626618328       -2.35288641059578        0.87214409378347
H           -1.32886946651668       -0.83233725395482        1.49872193022540
H           -1.35020570304801        0.11536099069238       -0.83851021185121
H           -0.73868294346977       -1.39349093791422       -1.45239597156771
H            1.58189471669106       -2.06003456081658       -1.04888503073973
H            3.88321454627979       -1.31382143500775       -0.55189135085222
H            2.38121948363190        2.30566658165402        1.04302824166493
H            0.07369405582532        1.57524928877887        0.54928059483974
