 xtb: 6.5.1 (fef0646)
          01242317073D

 22 21  0     0  0            999 V2000
   -2.7485   -1.9198    0.3370 N   0  0  0  0  0  0  0  0  0  0  0  0
   -1.3467   -1.4915    0.6084 C   0  0  0  0  0  0  0  0  0  0  0  0
   -0.7328   -0.7411   -0.5679 C   0  0  0  0  0  0  0  0  0  0  0  0
    0.6697   -0.2820   -0.2976 C   0  0  0  0  0  0  0  0  0  0  0  0
    1.7509   -1.1013   -0.5845 C   0  0  0  0  0  0  0  0  0  0  0  0
    3.0380   -0.6923   -0.3051 C   0  0  0  0  0  0  0  0  0  0  0  0
    3.2728    0.5417    0.2733 C   0  0  0  0  0  0  0  0  0  0  0  0
    4.5429    0.9438    0.5515 F   0  0  0  0  0  0  0  0  0  0  0  0
    2.1971    1.3592    0.5690 C   0  0  0  0  0  0  0  0  0  0  0  0
    0.9098    0.9509    0.2899 C   0  0  0  0  0  0  0  0  0  0  0  0
   -4.4975    1.0309   -0.4482 Cl  0  0  0  0  0  0  0  0  0  0  0  0
   -2.7887   -2.5544   -0.4704 H   0  0  0  0  0  0  0  0  0  0  0  0
   -3.3337   -1.1006    0.1155 H   0  0  0  0  0  0  0  0  0  0  0  0
   -3.1700   -2.4022    1.1451 H   0  0  0  0  0  0  0  0  0  0  0  0
   -0.7307   -2.3645    0.8531 H   0  0  0  0  0  0  0  0  0  0  0  0
   -1.3205   -0.8566    1.5016 H   0  0  0  0  0  0  0  0  0  0  0  0
   -1.3564    0.1225   -0.8217 H   0  0  0  0  0  0  0  0  0  0  0  0
   -0.7442   -1.3755   -1.4599 H   0  0  0  0  0  0  0  0  0  0  0  0
    1.5757   -2.0666   -1.0281 H   0  0  0  0  0  0  0  0  0  0  0  0
    3.8782   -1.3255   -0.5293 H   0  0  0  0  0  0  0  0  0  0  0  0
    2.3859    2.3165    1.0220 H   0  0  0  0  0  0  0  0  0  0  0  0
    0.0768    1.5897    0.5299 H   0  0  0  0  0  0  0  0  0  0  0  0
  1  2  1  0  0  0  0
  2  3  1  0  0  0  0
  3  4  1  0  0  0  0
  4  5  4  0  0  0  0
  5  6  4  0  0  0  0
  6  7  4  0  0  0  0
  7  8  1  0  0  0  0
  7  9  4  0  0  0  0
  4 10  4  0  0  0  0
  9 10  4  0  0  0  0
  1 12  1  0  0  0  0
  1 13  1  0  0  0  0
  1 14  1  0  0  0  0
  2 15  1  0  0  0  0
  2 16  1  0  0  0  0
  3 17  1  0  0  0  0
  3 18  1  0  0  0  0
  5 19  1  0  0  0  0
  6 20  1  0  0  0  0
  9 21  1  0  0  0  0
 10 22  1  0  0  0  0
M  END
