  25

 N          2.8555200000       -1.0592100000       -1.9424600000
 C          2.3755400000       -0.4542500000       -0.6721900000
 C          2.9584400000       -1.1882200000        0.5368900000
 C          4.4667700000       -1.1657000000        0.6008500000
 C          5.1737800000        0.0415300000        0.6632400000
 C          6.5718900000        0.0492600000        0.7445400000
 C          7.2833800000       -1.1473800000        0.7693500000
 O          8.6423600000       -1.2685000000        0.8426700000
 C          9.3922800000       -0.0593100000        0.9054800000
 C          6.5832900000       -2.3534000000        0.7265100000
 C          5.1885100000       -2.3631000000        0.6454600000
 H          2.4658000000       -0.5725600000       -2.7600700000
 H          2.5971800000       -2.0515800000       -2.0174400000
 H          3.8832500000       -1.0062000000       -2.0116300000
 H          1.2840400000       -0.5290600000       -0.6830700000
 H          2.6606000000        0.6015600000       -0.7004100000
 H          2.6045500000       -2.2278700000        0.5229900000
 H          2.5682200000       -0.7435200000        1.4585900000
 H          4.6603800000        1.0006700000        0.6857800000
 H          7.0763100000        1.0092100000        0.8035900000
 H         10.4555200000       -0.3179700000        0.9058000000
 H          9.1774500000        0.4857500000        1.8307100000
 H          9.2043700000        0.5660200000        0.0260800000
 H          7.1310800000       -3.2928800000        0.7760700000
 H          4.6828500000       -3.3281800000        0.6416700000
