  21

 N         -2.5020018029       -1.4593701663       -0.6395393399
 C         -1.0224921046       -1.3152953782       -0.6587222996
 C         -0.4716696403       -0.8852052154        0.6949759125
 C          1.0550479958       -0.7900666457        0.7334745230
 C          1.6279477810        0.3091836228       -0.1553362837
 C          3.1307134471        0.3692412846       -0.0710814615
 O          3.7150962903        1.5700943827       -0.3222350757
 O          3.7346233532       -0.6500693224        0.1931167368
 Cl        -3.8111818162        1.6179450059        0.3304127535
 H         -2.8792555050       -1.7366741992       -1.5593772760
 H         -2.9507447894       -0.5637493443       -0.3693205478
 H         -2.7972518852       -2.1702369082        0.0473415401
 H         -0.7370554046       -0.5910918714       -1.4303192117
 H         -0.5636687400       -2.2634478011       -0.9626887342
 H         -0.8233298276       -1.5883526492        1.4598944651
 H         -0.9067331375        0.0811932385        0.9738750543
 H          1.4974003240       -1.7496092552        0.4401351734
 H          1.4009429394       -0.6249120643        1.7617570238
 H          1.2028865937        1.2766869006        0.1282669367
 H          1.3448909534        0.1444357618       -1.1985508024
 H          3.0469897415        2.2572430618       -0.5371625481
          21
        -32.38777396
 N         -0.8661753566       -0.5861441909        1.3867960171
 C         -0.6044464085       -1.8973245116        0.7381417692
 C         -0.3570404206       -1.7759909518       -0.7669747391
 C          0.5794766237       -0.6269971211       -1.1492363671
 C          1.9750555582       -0.6993695967       -0.4976869325
 C          2.3480873976        0.6164663025        0.1349292517
 O          3.4593850473        1.2522675784       -0.3197340096
 O          1.6199512017        1.0325846438        1.0129322246
 Cl        -3.4042165698        1.0270203231       -0.3182522741
 H         -1.0939555773       -0.6798079572        2.3881371400
 H         -1.6496556818       -0.0910965803        0.9233393113
 H         -0.0252433139        0.0215683012        1.3134667815
 H         -1.4437007835       -2.5774999769        0.9311026762
 H          0.2587808489       -2.3642852254        1.2273438424
 H         -1.3193197035       -1.6389415578       -1.2764161928
 H          0.0440589895       -2.7195330644       -1.1564995293
 H          0.1111259793        0.3216473211       -0.8585108917
 H          0.6751012100       -0.5573004907       -2.2410334753
 H          2.7366524215       -1.0090186829       -1.2205546315
 H          1.9926263729       -1.4633069795        0.2842999686
 H          3.8991335325        0.7420332690       -1.0343099909
          21
        -32.38972212
 N         -1.0875347855       -0.9036318737        1.2004301483
 C         -0.7246703258       -2.0687478655        0.3228257254
 C          0.6307430133       -1.8429934049       -0.3408584255
 C          0.6503771072       -0.5998153678       -1.2472083117
 C          1.9819047606        0.1496129985       -1.1968081619
 C          2.2711237847        0.7252073708        0.1692599156
 O          3.5246399027        1.2151791251        0.3580930776
 O          1.3986925947        0.7317861460        1.0138359119
 Cl        -3.5854236414        1.0138278250       -0.2367422516
 H         -1.3599680483       -1.1810783097        2.1558930306
 H         -1.8550778112       -0.3301699972        0.8022774072
 H         -0.2576157905       -0.2818049165        1.2729685479
 H         -1.4968413934       -2.2255780856       -0.4399788927
 H         -0.7065411956       -2.9920743928        0.9159351252
 H          0.9561849158       -2.7311690006       -0.8969419209
 H          1.3788494846       -1.7111259185        0.4505456056
 H         -0.1392298502        0.0920036923       -0.9314023050
 H          0.3902011576       -0.8761581377       -2.2771391493
 H          1.9915110285        0.9660567408       -1.9264130751
 H          2.7949463622       -0.5253128308       -1.4802518073
 H          4.0678311040        1.1249416170       -0.4554844399
          21
        -32.39649515
 N          0.0856352322       -1.3098219977        1.3158210969
 C          0.8025572580       -2.2171845144        0.3740744876
 C          1.6561268890       -1.4511619602       -0.6367415806
 C          0.8702919908       -0.4269427982       -1.4885612709
 C          1.2527353625        1.0261031475       -1.1945022070
 C          0.9264172802        1.4203758720        0.2199060201
 O         -0.2689783266        2.0294382618        0.4346503348
 O          1.7165189613        1.1287424049        1.0956580542
 Cl        -2.8098834806       -0.1172059522       -0.1878915237
 H         -0.1499233001       -1.7555878418        2.2158096590
 H         -0.7917157861       -0.9446878453        0.9017239023
 H          0.6782339477       -0.4813621970        1.4991995719
 H          0.0777188261       -2.8551231480       -0.1455072175
 H          1.4388287211       -2.9035031436        0.9475718705
 H          2.1891388114       -2.1598480224       -1.2845708182
 H          2.4468194894       -0.9183960947       -0.0937538958
 H         -0.2046690545       -0.5597986550       -1.3203407323
 H          1.0141018021       -0.6350934413       -2.5575272025
 H          0.7557783904        1.7115922039       -1.8884277279
 H          2.3261432829        1.1674193006       -1.3505266697
 H         -0.7503771288        2.1752963088       -0.4092450722
          21
        -32.39672830
 N          0.1010568673       -1.3033496041        1.3226153502
 C          0.8160822467       -2.2111676601        0.3803976026
 C          1.6539269220       -1.4458777810       -0.6440771267
 C          0.8537667215       -0.4284119887       -1.4905753557
 C          1.2289804822        1.0277963872       -1.2029414832
 C          0.9196016292        1.4217003771        0.2154395959
 O         -0.2772025582        2.0224442324        0.4459689467
 O          1.7242497489        1.1368043725        1.0801371905
 Cl        -2.8023489749       -0.1254394052       -0.1835850974
 H         -0.1296452344       -1.7474157020        2.2247391455
 H         -0.7789249640       -0.9414917699        0.9112465327
 H          0.6928218950       -0.4733734238        1.5013914330
 H          0.0911999806       -2.8584965093       -0.1274615651
 H          1.4631503504       -2.8884646448        0.9525255886
 H          2.1814416537       -2.1554354337       -1.2954150531
 H          2.4492176997       -0.9075127027       -0.1134123979
 H         -0.2187057499       -0.5682190774       -1.3127061240
 H          0.9894223191       -0.6374142706       -2.5603948803
 H          0.7175541389        1.7087409987       -1.8908031780
 H          2.2991202539        1.1770850502       -1.3734448429
 H         -0.7718064222        2.1624921361       -0.3911887283
          21
        -32.39684817
 N          0.0925802850       -1.3017412736        1.3305960204
 C          0.7838439315       -2.2204839437        0.3812683937
 C          1.6215689779       -1.4673426088       -0.6522793085
 C          0.8270151102       -0.4381656820       -1.4898514967
 C          1.2303160987        1.0120537167       -1.2101016207
 C          0.9440411525        1.4145075137        0.2107523253
 O         -0.2367713295        2.0414256739        0.4525580735
 O          1.7508135407        1.1137857178        1.0678599022
 Cl        -2.8016681662       -0.1002490352       -0.1780454186
 H         -0.1334741260       -1.7412030000        2.2360242873
 H         -0.7869924441       -0.9291807007        0.9284052258
 H          0.6977303986       -0.4798729089        1.5014137813
 H          0.0443179556       -2.8573134736       -0.1186471301
 H          1.4272575133       -2.9069383146        0.9465348756
 H          2.1321889637       -2.1839298242       -1.3092391157
 H          2.4299012374       -0.9406250598       -0.1298085114
 H         -0.2450382668       -0.5597176000       -1.2970011551
 H          0.9443928051       -0.6513762141       -2.5609645915
 H          0.7224456363        1.6999104343       -1.8937069461
 H          2.3007106569        1.1426917231       -1.3936888596
 H         -0.7368014000        2.1900781995       -0.3797927422
          21
        -32.40570860
 N         -0.8201710773        0.9043864646        1.3600231772
 C         -0.7102253332        2.1368880365        0.5401614570
 C         -0.3550718549        1.8675207928       -0.9207851978
 C          1.0235936206        1.2191971534       -1.1213541842
 C          1.0482447025       -0.3121949208       -0.9189746033
 C          2.0263704995       -0.7284775837        0.1424838338
 O          3.1598307287       -1.3406176375       -0.2685757465
 O          1.7811901401       -0.4933429420        1.3059111237
 Cl        -3.0054255502       -1.2704558033       -0.2021591424
 H          0.0928397402        0.4103470661        1.3952013286
 H         -1.5114759601        0.2474892607        0.9539567720
 H         -1.1014092412        1.1031113234        2.3326402618
 H          0.0435209261        2.7977635931        0.9849781557
 H         -1.6564805340        2.6893774208        0.6007250568
 H         -0.4004658842        2.8130197687       -1.4777926799
 H         -1.1230195785        1.2317443653       -1.3754909815
 H          1.7403822259        1.6839045706       -0.4330439839
 H          1.4079452695        1.4597396902       -2.1223016327
 H          1.3070740591       -0.8305420886       -1.8487184106
 H          0.0556476645       -0.6819977359       -0.6463539027
 H          3.6829661921       -1.5388450324        0.5325739542
          21
        -32.40579330
 N         -0.8210905621        0.9086188285        1.3574167325
 C         -0.7186726529        2.1393657875        0.5335353481
 C         -0.3596590965        1.8669805629       -0.9257493586
 C          1.0216369348        1.2220529827       -1.1201136206
 C          1.0482117587       -0.3093677362       -0.9182909513
 C          2.0269350452       -0.7249868988        0.1427574594
 O          3.1502279490       -1.3575875815       -0.2660085741
 O          1.7906227278       -0.4725710097        1.3044871882
 Cl        -2.9989130435       -1.2780105330       -0.1977978625
 H          0.0952227474        0.4207714686        1.3938002350
 H         -1.5087104584        0.2469677380        0.9529075676
 H         -1.1037877044        1.1081721220        2.3294213699
 H          0.0304878048        2.8062981380        0.9769304203
 H         -1.6683792211        2.6860916235        0.5912044120
 H         -0.4066994005        2.8105108790       -1.4859460387
 H         -1.1243482714        1.2272579324       -1.3804164668
 H          1.7337954207        1.6877500084       -0.4277080830
 H          1.4108280634        1.4641407937       -2.1187674986
 H          1.3067894625       -0.8269973469       -1.8484880151
 H          0.0561544493       -0.6803632598       -0.6451909173
 H          3.6748869594       -1.5513297579        0.5352204532
