  21

 N          1.1064700000       -0.0437100000       -0.3189400000
 C          2.5670600000        0.0145500000       -0.2970100000
 C          3.1169900000       -0.9707700000        0.7293200000
 C          4.6445500000       -0.9395600000        0.8245900000
 C          5.1779600000        0.4145300000        1.2969200000
 C          6.6835100000        0.4228100000        1.4025300000
 O          7.1417100000        1.3422900000        2.2790400000
 O          7.4252100000       -0.2686400000        0.7242400000
 Cl        -0.2264300000        0.4564500000        2.1903600000
 H          0.6471100000        0.6637900000       -0.8939300000
 H          0.7169900000        0.1690000000        0.6484400000
 H          0.6977500000       -0.9649100000       -0.5106200000
 H          2.8240300000        1.0502400000       -0.0567100000
 H          2.9176100000       -0.2186600000       -1.3058400000
 H          2.7991500000       -1.9874600000        0.4667300000
 H          2.7024600000       -0.7608300000        1.7214500000
 H          5.0786900000       -1.2056300000       -0.1464600000
 H          4.9675000000       -1.7171100000        1.5295700000
 H          4.7423700000        0.6454500000        2.2752500000
 H          4.9094300000        1.2105100000        0.5966500000
 H          6.4465100000        1.8402900000        2.7502400000
