24
 xtb: 6.5.1 (fef0646)
N           -1.96106899168110        0.01918756285292       -1.13500497170378
C           -1.94815879813322       -0.02044208012527        0.35369215771011
C           -0.55975459075620       -0.01881429906348        1.02576611365546
C            0.24810477691307        1.28915025101105        0.77046219512321
C            1.12820025968672        1.26428502901882       -0.49348653840705
C            2.02147003167938        0.01710396180766       -0.53424205325671
C            1.17268476507486       -1.26135654907924       -0.47736686804747
C            0.28713966802284       -1.30297507492912        0.78180613360659
H           -2.92430610896320        0.14030535375364       -1.49544208626879
H           -1.56132768195100       -0.81719915494555       -1.56909991494365
H           -1.41137907987073        0.86437327198267       -1.47572389144674
H           -2.49239110116035       -0.92936473095825        0.66144966505061
H           -2.53726358338039        0.81252778971411        0.73567990497338
H           -0.77435485843974       -0.01011168038516        2.11400797293285
H            0.89115155347489        1.50261469254619        1.63363117133226
H           -0.44511009727079        2.13671796947990        0.71516125635049
H            1.74664724726327        2.16531469429906       -0.55511006420487
H            0.50292860400033        1.28864689748502       -1.39631435978404
H            2.71063709858110        0.02701801854992        0.31218522604557
H            2.65362576958816        0.00928235324789       -1.43385059099963
H            1.81208163334446       -2.15455678684666       -0.50983774522786
H            0.54461920225099       -1.33586373974856       -1.37296728128539
H            0.92470165076152       -1.48565544378928        1.65831709219630
H           -0.39123213807525       -2.16440042881699        0.74285374903344
