 xtb: 6.5.1 (fef0646)
          01242314573D

 26 25  0     0  0            999 V2000
    2.7969    0.8956    1.6677 N   0  0  0  0  0  0  0  0  0  0  0  0
    2.4949    0.2845    0.3581 C   0  0  0  0  0  0  0  0  0  0  0  0
    2.9564   -1.1721    0.3582 C   0  0  0  0  0  0  0  0  0  0  0  0
    4.4512   -1.2741    0.4903 C   0  0  0  0  0  0  0  0  0  0  0  0
    5.0413   -1.4242    1.7371 C   0  0  0  0  0  0  0  0  0  0  0  0
    6.4180   -1.5021    1.8784 C   0  0  0  0  0  0  0  0  0  0  0  0
    7.2319   -1.4235    0.7551 C   0  0  0  0  0  0  0  0  0  0  0  0
    8.5985   -1.4901    0.7680 O   0  0  0  0  0  0  0  0  0  0  0  0
    9.2552   -1.6777    2.0046 C   0  0  0  0  0  0  0  0  0  0  0  0
    6.6463   -1.2640   -0.5018 C   0  0  0  0  0  0  0  0  0  0  0  0
    5.2756   -1.1917   -0.6279 C   0  0  0  0  0  0  0  0  0  0  0  0
    1.6864   -0.7877    3.9757 Cl  0  0  0  0  0  0  0  0  0  0  0  0
    2.4532    1.8557    1.7308 H   0  0  0  0  0  0  0  0  0  0  0  0
    3.8058    0.8719    1.8406 H   0  0  0  0  0  0  0  0  0  0  0  0
    2.3546    0.3344    2.4400 H   0  0  0  0  0  0  0  0  0  0  0  0
    3.0071    0.8410   -0.4277 H   0  0  0  0  0  0  0  0  0  0  0  0
    1.4192    0.3221    0.1938 H   0  0  0  0  0  0  0  0  0  0  0  0
    2.6346   -1.6465   -0.5676 H   0  0  0  0  0  0  0  0  0  0  0  0
    2.4786   -1.6825    1.1953 H   0  0  0  0  0  0  0  0  0  0  0  0
    4.4169   -1.4982    2.6170 H   0  0  0  0  0  0  0  0  0  0  0  0
    6.8380   -1.6284    2.8637 H   0  0  0  0  0  0  0  0  0  0  0  0
   10.3157   -1.7138    1.7650 H   0  0  0  0  0  0  0  0  0  0  0  0
    8.9537   -2.6178    2.4751 H   0  0  0  0  0  0  0  0  0  0  0  0
    9.0617   -0.8455    2.6871 H   0  0  0  0  0  0  0  0  0  0  0  0
    7.2942   -1.2082   -1.3622 H   0  0  0  0  0  0  0  0  0  0  0  0
    4.8394   -1.0790   -1.6087 H   0  0  0  0  0  0  0  0  0  0  0  0
  1  2  1  0  0  0  0
  2  3  1  0  0  0  0
  3  4  1  0  0  0  0
  4  5  4  0  0  0  0
  5  6  4  0  0  0  0
  6  7  4  0  0  0  0
  7  8  1  0  0  0  0
  8  9  1  0  0  0  0
  7 10  4  0  0  0  0
  4 11  4  0  0  0  0
 10 11  4  0  0  0  0
  1 13  1  0  0  0  0
  1 14  1  0  0  0  0
  1 15  1  0  0  0  0
  2 16  1  0  0  0  0
  2 17  1  0  0  0  0
  3 18  1  0  0  0  0
  3 19  1  0  0  0  0
  5 20  1  0  0  0  0
  6 21  1  0  0  0  0
  9 22  1  0  0  0  0
  9 23  1  0  0  0  0
  9 24  1  0  0  0  0
 10 25  1  0  0  0  0
 11 26  1  0  0  0  0
M  END
