15

N          1.07670       -0.02920        0.10352
C          2.54174       -0.02769        0.03052
C          3.20492       -1.09846        0.92611
C          4.25756       -0.03135        1.29325
C          3.20136        1.03511        0.93634
H          0.66924       -0.77753       -0.47455
H          0.67848        0.85573       -0.23513
H          0.72729       -0.16753        1.06104
H          2.90877       -0.01791       -1.00152
H          3.59221       -1.97786        0.40450
H          2.60306       -1.42919        1.78069
H          5.13055       -0.02725        0.63138
H          4.59570       -0.03520        2.33244
H          3.58595        1.91967        0.42188
H          2.59575        1.35720        1.79223
