16
0.565
N           -0.16466   0.36991  -0.38032
C            0.83169  -0.73602  -0.29456
C            2.25298  -0.25351  -0.58003
C            2.73890   0.73992   0.42157
C            3.14805   1.95261   0.10345
Cl          -3.39309  -0.82799   0.33445
H           -0.16837   0.79107  -1.32299
H            0.06012   1.11883   0.28958
H           -1.12370   0.04275  -0.17668
H            0.55160  -1.53497  -0.99245
H            0.79140  -1.18930   0.70293
H            2.28812   0.19230  -1.58065
H            2.94782  -1.10271  -0.61779
H            2.73694   0.43451   1.45606
H            3.15520   2.28655  -0.91605
H            3.48771   2.65067   0.84498
