 xtb: 6.5.1 (fef0646)
          01242317003D

 36 36  0     0  0            999 V2000
   -4.9119   -0.9232    1.2179 N   0  0  0  0  0  0  0  0  0  0  0  0
   -5.2472    0.5285    1.2680 C   0  0  0  0  0  0  0  0  0  0  0  0
   -4.5379    1.3207    0.1721 C   0  0  0  0  0  0  0  0  0  0  0  0
   -3.0478    1.1580    0.2064 C   0  0  0  0  0  0  0  0  0  0  0  0
   -2.4270    0.1849   -0.5620 C   0  0  0  0  0  0  0  0  0  0  0  0
   -1.0619    0.0081   -0.5142 C   0  0  0  0  0  0  0  0  0  0  0  0
   -0.2667    0.7998    0.3146 C   0  0  0  0  0  0  0  0  0  0  0  0
    1.1800    0.6474    0.3968 C   0  0  0  0  0  0  0  0  0  0  0  0
    1.9073   -0.2526   -0.2796 C   0  0  0  0  0  0  0  0  0  0  0  0
    3.3538   -0.4023   -0.1984 C   0  0  0  0  0  0  0  0  0  0  0  0
    4.1485    0.4163    0.6038 C   0  0  0  0  0  0  0  0  0  0  0  0
    5.5190    0.2549    0.6626 C   0  0  0  0  0  0  0  0  0  0  0  0
    6.2726    1.0671    1.4544 F   0  0  0  0  0  0  0  0  0  0  0  0
    6.1168   -0.7401   -0.0910 C   0  0  0  0  0  0  0  0  0  0  0  0
    5.3513   -1.5617   -0.8920 C   0  0  0  0  0  0  0  0  0  0  0  0
    3.9849   -1.3968   -0.9468 C   0  0  0  0  0  0  0  0  0  0  0  0
   -0.8999    1.7699    1.0922 C   0  0  0  0  0  0  0  0  0  0  0  0
   -2.2656    1.9425    1.0402 C   0  0  0  0  0  0  0  0  0  0  0  0
   -4.8823   -1.8307   -2.1941 Cl  0  0  0  0  0  0  0  0  0  0  0  0
   -5.4846   -1.4811    1.8659 H   0  0  0  0  0  0  0  0  0  0  0  0
   -3.9228   -1.0769    1.4555 H   0  0  0  0  0  0  0  0  0  0  0  0
   -5.0519   -1.2901    0.2617 H   0  0  0  0  0  0  0  0  0  0  0  0
   -4.9745    0.9284    2.2515 H   0  0  0  0  0  0  0  0  0  0  0  0
   -6.3332    0.6583    1.1853 H   0  0  0  0  0  0  0  0  0  0  0  0
   -4.7871    2.3858    0.2429 H   0  0  0  0  0  0  0  0  0  0  0  0
   -4.9064    1.0004   -0.8082 H   0  0  0  0  0  0  0  0  0  0  0  0
   -3.0314   -0.4434   -1.1950 H   0  0  0  0  0  0  0  0  0  0  0  0
   -0.6088   -0.7532   -1.1236 H   0  0  0  0  0  0  0  0  0  0  0  0
    1.6862    1.3226    1.0627 H   0  0  0  0  0  0  0  0  0  0  0  0
    1.4015   -0.9310   -0.9423 H   0  0  0  0  0  0  0  0  0  0  0  0
    3.7090    1.1963    1.1958 H   0  0  0  0  0  0  0  0  0  0  0  0
    7.1849   -0.8576   -0.0394 H   0  0  0  0  0  0  0  0  0  0  0  0
    5.8244   -2.3342   -1.4760 H   0  0  0  0  0  0  0  0  0  0  0  0
    3.3897   -2.0396   -1.5729 H   0  0  0  0  0  0  0  0  0  0  0  0
   -0.3053    2.3892    1.7424 H   0  0  0  0  0  0  0  0  0  0  0  0
   -2.7396    2.6917    1.6517 H   0  0  0  0  0  0  0  0  0  0  0  0
  1  2  1  0  0  0  0
  2  3  1  0  0  0  0
  3  4  1  0  0  0  0
  4  5  4  0  0  0  0
  5  6  4  0  0  0  0
  6  7  4  0  0  0  0
  7  8  1  0  0  0  0
  8  9  2  0  0  0  0
  9 10  1  0  0  0  0
 10 11  4  0  0  0  0
 11 12  4  0  0  0  0
 12 13  1  0  0  0  0
 12 14  4  0  0  0  0
 14 15  4  0  0  0  0
 10 16  4  0  0  0  0
 15 16  4  0  0  0  0
  7 17  4  0  0  0  0
  4 18  4  0  0  0  0
 17 18  4  0  0  0  0
  1 20  1  0  0  0  0
  1 21  1  0  0  0  0
  1 22  1  0  0  0  0
  2 23  1  0  0  0  0
  2 24  1  0  0  0  0
  3 25  1  0  0  0  0
  3 26  1  0  0  0  0
  5 27  1  0  0  0  0
  6 28  1  0  0  0  0
  8 29  1  0  0  0  0
  9 30  1  0  0  0  0
 11 31  1  0  0  0  0
 14 32  1  0  0  0  0
 15 33  1  0  0  0  0
 16 34  1  0  0  0  0
 17 35  1  0  0  0  0
 18 36  1  0  0  0  0
M  END
