 xtb: 6.5.1 (fef0646)
          01242314583D

 22 21  0     0  0            999 V2000
    2.6803    1.0797    0.4169 N   0  0  0  0  0  0  0  0  0  0  0  0
    1.8994   -0.1663    0.2007 C   0  0  0  0  0  0  0  0  0  0  0  0
    0.4912    0.0098    0.7589 C   0  0  0  0  0  0  0  0  0  0  0  0
    2.6137   -1.3308    0.8430 C   0  0  0  0  0  0  0  0  0  0  0  0
    3.0111   -2.4164    0.0759 C   0  0  0  0  0  0  0  0  0  0  0  0
    3.6555   -3.4928    0.6604 C   0  0  0  0  0  0  0  0  0  0  0  0
    3.9116   -3.4936    2.0209 C   0  0  0  0  0  0  0  0  0  0  0  0
    3.5184   -2.4143    2.7938 C   0  0  0  0  0  0  0  0  0  0  0  0
    2.8727   -1.3404    2.2086 C   0  0  0  0  0  0  0  0  0  0  0  0
    5.3329    0.8744   -1.0512 Cl  0  0  0  0  0  0  0  0  0  0  0  0
    3.6141    1.0131   -0.0671 H   0  0  0  0  0  0  0  0  0  0  0  0
    2.8579    1.2320    1.4128 H   0  0  0  0  0  0  0  0  0  0  0  0
    2.1889    1.8893    0.0302 H   0  0  0  0  0  0  0  0  0  0  0  0
    1.8551   -0.3367   -0.8777 H   0  0  0  0  0  0  0  0  0  0  0  0
    0.5175    0.2051    1.8263 H   0  0  0  0  0  0  0  0  0  0  0  0
   -0.0796   -0.8995    0.5981 H   0  0  0  0  0  0  0  0  0  0  0  0
   -0.0213    0.8250    0.2570 H   0  0  0  0  0  0  0  0  0  0  0  0
    2.8251   -2.4182   -0.9878 H   0  0  0  0  0  0  0  0  0  0  0  0
    3.9643   -4.3298    0.0517 H   0  0  0  0  0  0  0  0  0  0  0  0
    4.4183   -4.3318    2.4758 H   0  0  0  0  0  0  0  0  0  0  0  0
    3.7180   -2.4112    3.8548 H   0  0  0  0  0  0  0  0  0  0  0  0
    2.5671   -0.5162    2.8346 H   0  0  0  0  0  0  0  0  0  0  0  0
  1  2  1  0  0  0  0
  2  3  1  0  0  0  0
  2  4  1  0  0  0  0
  4  5  4  0  0  0  0
  5  6  4  0  0  0  0
  6  7  4  0  0  0  0
  7  8  4  0  0  0  0
  4  9  4  0  0  0  0
  8  9  4  0  0  0  0
  1 11  1  0  0  0  0
  1 12  1  0  0  0  0
  1 13  1  0  0  0  0
  2 14  1  0  0  0  0
  3 15  1  0  0  0  0
  3 16  1  0  0  0  0
  3 17  1  0  0  0  0
  5 18  1  0  0  0  0
  6 19  1  0  0  0  0
  7 20  1  0  0  0  0
  8 21  1  0  0  0  0
  9 22  1  0  0  0  0
M  END
