25
 xtb: 6.5.1 (fef0646)
N           -1.27215518764900        1.50951344688154       -0.61887576071512
C           -0.06176483896461        1.30620993835139        0.23120292894247
C            0.34504995770399       -0.17342076481417        0.31800210090176
C            1.41963852631286       -0.42945966174000        1.40997907369926
C            2.80826742572069        0.09075006997215        0.99965396872996
C            3.25108322059802       -0.50548850796628       -0.34624086146367
C            2.21314810566477       -0.21636490242344       -1.44281875015084
C            0.82386027488410       -0.74319445156504       -1.04412227757908
Cl          -3.59465175047030       -0.42159646116963        0.23911090525388
H           -1.50110923789291        2.56218074962629       -0.62444850451111
H           -1.99841499365114        0.97988105395703       -0.38435447069392
H           -0.96748077375404        1.35993513106570       -1.64308969142514
H           -0.25042174447891        1.70117697876255        1.23949915763733
H            0.83658264796689        1.91155019646843       -0.10735266088369
H           -0.56880619927806       -0.69918533418516        0.60452489250995
H            1.47624894378371       -1.50462130333299        1.61193747716983
H            1.10720053391403        0.03318520658268        2.35529073308044
H            3.55284852676622       -0.14190904202997        1.78309035911390
H            2.79726855383502        1.17868151037377        0.92969500404870
H            3.37346596983722       -1.59633246211917       -0.24244153767660
H            4.24484465855496       -0.13328411852184       -0.63491046055019
H            2.53272041632146       -0.65323906510463       -2.40218416934279
H            2.17071904461491        0.86467087301031       -1.62322761628518
H            0.85436505598741       -1.83068518182871       -0.98479560914967
H            0.09120410022255       -0.50847326710637       -1.82751854403422
