15

N          2.98142       -0.67891        1.16062
C          2.52006        0.11193       -0.01429
C          3.12280        1.51828        0.02122
S          4.94357        1.40771        0.09548
C          5.33184        3.18103        0.07669
H          2.64122       -1.64836        1.13300
H          2.69279       -0.26042        2.05335
H          4.01502       -0.70594        1.16197
H          1.42755        0.14404        0.03115
H          2.82560       -0.44128       -0.90633
H          2.77068        2.05432        0.90854
H          2.81906        2.07504       -0.87040
H          6.41727        3.31138        0.07326
H          4.92583        3.66103        0.97077
H          4.92013        3.65658       -0.81735
