 xtb: 6.5.1 (fef0646)
          01242310113D

 41 40  0     0  0            999 V2000
   -6.1324   -0.4287   -1.0389 N   0  0  0  0  0  0  0  0  0  0  0  0
   -5.8060    0.2570    0.2434 C   0  0  0  0  0  0  0  0  0  0  0  0
   -4.6307    1.2218    0.1204 C   0  0  0  0  0  0  0  0  0  0  0  0
   -3.3087    0.5597   -0.2778 C   0  0  0  0  0  0  0  0  0  0  0  0
   -2.7900   -0.4488    0.7485 C   0  0  0  0  0  0  0  0  0  0  0  0
   -1.4438   -1.0779    0.3743 C   0  0  0  0  0  0  0  0  0  0  0  0
   -0.2682   -0.0996    0.4130 C   0  0  0  0  0  0  0  0  0  0  0  0
    1.0765   -0.7674    0.1190 C   0  0  0  0  0  0  0  0  0  0  0  0
    2.2586    0.2009    0.1805 C   0  0  0  0  0  0  0  0  0  0  0  0
    3.6031   -0.4721   -0.1002 C   0  0  0  0  0  0  0  0  0  0  0  0
    4.7882    0.4921   -0.0257 C   0  0  0  0  0  0  0  0  0  0  0  0
    6.1331   -0.1826   -0.3026 C   0  0  0  0  0  0  0  0  0  0  0  0
    7.3088    0.7786   -0.2202 C   0  0  0  0  0  0  0  0  0  0  0  0
   -6.3266    0.2565   -1.7845 H   0  0  0  0  0  0  0  0  0  0  0  0
   -6.9650   -1.0317   -0.9493 H   0  0  0  0  0  0  0  0  0  0  0  0
   -5.3556   -1.0251   -1.3606 H   0  0  0  0  0  0  0  0  0  0  0  0
   -5.6019   -0.4930    1.0159 H   0  0  0  0  0  0  0  0  0  0  0  0
   -6.6967    0.7949    0.5932 H   0  0  0  0  0  0  0  0  0  0  0  0
   -4.4909    1.7568    1.0679 H   0  0  0  0  0  0  0  0  0  0  0  0
   -4.8885    1.9962   -0.6126 H   0  0  0  0  0  0  0  0  0  0  0  0
   -2.5484    1.3331   -0.4390 H   0  0  0  0  0  0  0  0  0  0  0  0
   -3.4184    0.0666   -1.2499 H   0  0  0  0  0  0  0  0  0  0  0  0
   -3.5379   -1.2386    0.8863 H   0  0  0  0  0  0  0  0  0  0  0  0
   -2.7045    0.0385    1.7265 H   0  0  0  0  0  0  0  0  0  0  0  0
   -1.5137   -1.5264   -0.6233 H   0  0  0  0  0  0  0  0  0  0  0  0
   -1.2264   -1.9153    1.0491 H   0  0  0  0  0  0  0  0  0  0  0  0
   -0.2281    0.3847    1.3956 H   0  0  0  0  0  0  0  0  0  0  0  0
   -0.4329    0.7147   -0.3010 H   0  0  0  0  0  0  0  0  0  0  0  0
    1.0422   -1.2440   -0.8675 H   0  0  0  0  0  0  0  0  0  0  0  0
    1.2399   -1.5886    0.8265 H   0  0  0  0  0  0  0  0  0  0  0  0
    2.2880    0.6812    1.1654 H   0  0  0  0  0  0  0  0  0  0  0  0
    2.1013    1.0193   -0.5316 H   0  0  0  0  0  0  0  0  0  0  0  0
    3.5772   -0.9467   -1.0879 H   0  0  0  0  0  0  0  0  0  0  0  0
    3.7557   -1.2952    0.6075 H   0  0  0  0  0  0  0  0  0  0  0  0
    4.8131    0.9672    0.9618 H   0  0  0  0  0  0  0  0  0  0  0  0
    4.6377    1.3149   -0.7342 H   0  0  0  0  0  0  0  0  0  0  0  0
    6.1038   -0.6561   -1.2921 H   0  0  0  0  0  0  0  0  0  0  0  0
    6.2750   -1.0102    0.4039 H   0  0  0  0  0  0  0  0  0  0  0  0
    8.2599    0.2805   -0.4210 H   0  0  0  0  0  0  0  0  0  0  0  0
    7.3799    1.2325    0.7696 H   0  0  0  0  0  0  0  0  0  0  0  0
    7.2065    1.5914   -0.9413 H   0  0  0  0  0  0  0  0  0  0  0  0
  1  2  1  0  0  0  0
  2  3  1  0  0  0  0
  3  4  1  0  0  0  0
  4  5  1  0  0  0  0
  5  6  1  0  0  0  0
  6  7  1  0  0  0  0
  7  8  1  0  0  0  0
  8  9  1  0  0  0  0
  9 10  1  0  0  0  0
 10 11  1  0  0  0  0
 11 12  1  0  0  0  0
 12 13  1  0  0  0  0
  1 14  1  0  0  0  0
  1 15  1  0  0  0  0
  1 16  1  0  0  0  0
  2 17  1  0  0  0  0
  2 18  1  0  0  0  0
  3 19  1  0  0  0  0
  3 20  1  0  0  0  0
  4 21  1  0  0  0  0
  4 22  1  0  0  0  0
  5 23  1  0  0  0  0
  5 24  1  0  0  0  0
  6 25  1  0  0  0  0
  6 26  1  0  0  0  0
  7 27  1  0  0  0  0
  7 28  1  0  0  0  0
  8 29  1  0  0  0  0
  8 30  1  0  0  0  0
  9 31  1  0  0  0  0
  9 32  1  0  0  0  0
 10 33  1  0  0  0  0
 10 34  1  0  0  0  0
 11 35  1  0  0  0  0
 11 36  1  0  0  0  0
 12 37  1  0  0  0  0
 12 38  1  0  0  0  0
 13 39  1  0  0  0  0
 13 40  1  0  0  0  0
 13 41  1  0  0  0  0
M  CHG  1   1   1
M  END
