27
0.0
N           -4.10190  -0.64737  -0.36367
C           -3.21013   0.42639   0.17195
C           -1.72453   0.23038  -0.17303
C           -1.10600  -0.99709   0.53824
C            0.37499  -1.18485   0.16330
C            1.20778   0.08041   0.46115
C            2.63751  -0.11192   0.01219
O            2.81739  -0.31577  -1.30545
O            3.53515  -0.07826   0.82044
C            0.58968   1.31624  -0.22445
C           -0.89149   1.49619   0.15180
H           -4.00210  -0.72839  -1.38125
H           -5.08675  -0.44601  -0.15808
H           -3.88053  -1.55959   0.04998
H           -3.32542   0.49149   1.25861
H           -3.54857   1.39113  -0.22204
H           -1.65180   0.05586  -1.25702
H           -1.67612  -1.90305   0.30521
H           -1.19632  -0.86288   1.62124
H            0.46584  -1.41477  -0.90428
H            0.80743  -2.04726   0.68569
H            1.22417   0.24743   1.54809
H            3.75230  -0.42646  -1.50003
H            0.69063   1.19721  -1.30907
H            1.17136   2.21208   0.02652
H           -1.31641   2.37050  -0.35576
H           -0.97428   1.70938   1.22275
