27
0.0
N           -4.12950  -0.57843  -0.36848
C           -3.21678   0.47680   0.16066
C           -1.73747   0.24972  -0.19562
C           -1.14389  -0.99932   0.50280
C            0.33134  -1.21704   0.12352
C            1.19411   0.02727   0.42116
C            2.62433  -0.19449  -0.01527
O            3.43713   0.87737  -0.00646
O            2.98647  -1.29904  -0.34673
C            0.60400   1.27876  -0.26029
C           -0.86982   1.49457   0.12488
H           -5.11608  -0.36692  -0.15363
H           -3.92367  -1.50339   0.03623
H           -4.05066  -0.66094  -1.39292
H           -3.32376   0.54362   1.24874
H           -3.54029   1.44921  -0.22906
H           -1.67962   0.07806  -1.28144
H           -1.73601  -1.89030   0.26340
H           -1.22898  -0.87411   1.58757
H            0.41945  -1.45240  -0.94356
H            0.75664  -2.08926   0.63866
H            1.20847   0.19302   1.50861
H            4.32415   0.59304  -0.28605
H            0.69603   1.16312  -1.34615
H            1.21609   2.15623  -0.01131
H           -1.27616   2.38052  -0.37850
H           -0.94064   1.71013   1.19642
