27
 xtb: 6.5.1 (fef0646)
N           -4.10260221491236       -0.65489303698075       -0.35435967719992
C           -3.21175106026296        0.43740788752488        0.15213930748887
C           -1.72161245503373        0.22940887955484       -0.16482342928224
C           -1.10736212071054       -1.00534099327322        0.53626373957263
C            0.37374291442760       -1.18803755268339        0.15691597208690
C            1.20923410772971        0.07300098555905        0.46338126198508
C            2.63781881108547       -0.11106782162101        0.00627545556835
O            2.81129102199841       -0.31139664026410       -1.31368742631179
O            3.53978047667408       -0.06826543971091        0.80838468840155
C            0.59066892035645        1.31731486707471       -0.20750836384556
C           -0.88945017420109        1.49242791298380        0.17373849125628
H           -3.89461081500179       -0.83127858684056       -1.36041706320256
H           -5.09817985453924       -0.37407575740973       -0.28174714634108
H           -3.98021613622562       -1.53550716394987        0.16206767687718
H           -3.33401327804254        0.51189388893261        1.25094572178728
H           -3.54318340501226        1.38923578614139       -0.24514766737837
H           -1.64794096151663        0.05809397036418       -1.25505749515136
H           -1.67698277225065       -1.90347531983902        0.30041657193975
H           -1.19678803175894       -0.86883482523343        1.62104383732218
H            0.46460102064485       -1.41273628494398       -0.90686916478005
H            0.80741012055984       -2.04983537750488        0.68086535925165
H            1.22591646344376        0.24243086385080        1.54910960545796
H            3.75083204699182       -0.41992954594849       -1.50478298601180
H            0.69031939659745        1.20133186599191       -1.30462942810567
H            1.17197950331522        2.21133158662147        0.03437461905941
H           -1.31625588465861        2.37126565562241       -0.34593454204039
H           -0.97299436831788        1.70435757095178        1.22993660966186
