27
 xtb: 6.5.1 (fef0646)
N           -4.11815636028374       -0.60165629949839       -0.37210272227718
C           -3.20548460673020        0.45023257114931        0.16804225982225
C           -1.72227918073859        0.22824016704131       -0.17174849263342
C           -1.12619317070637       -1.02447137708205        0.51610907854010
C            0.35324260849718       -1.23264946275195        0.13960949007832
C            1.20369384959489        0.00800079909509        0.47192702540996
C            2.63968236178279       -0.11306505837690        0.01223172131116
O            2.81280387524493       -0.38589769602148       -1.29571265422774
O            3.55595482890260        0.11923182848541        0.79183692754873
C            0.60786448803742        1.27459658276298       -0.18725363903539
C           -0.87113315728881        1.47403916248757        0.18278702883987
H           -3.99545798494588       -0.72586369584268       -1.38166282875304
H           -5.09119579699917       -0.42041142493168       -0.17378628153767
H           -3.90025564545508       -1.54622444550196        0.05822678282564
H           -3.32527366020213        0.49943887700670        1.25731622752048
H           -3.54089101342008        1.40005141529249       -0.22375315497720
H           -1.65049858532447        0.06109522146511       -1.25755800556791
H           -1.68714459997474       -1.90640054391205        0.29371664721700
H           -1.20160405149720       -0.87626382795566        1.61558494362594
H            0.45954079932155       -1.42253114756329       -0.91236029056911
H            0.79547489951256       -2.06687298733418        0.67390417336429
H            1.22250234057967        0.21993764426082        1.55222049592974
H            3.75485409125872       -0.40130256953296       -1.50408252522745
H            0.69663763650973        1.19118627268379       -1.29898550770101
H            1.18160099890922        2.19506137928834        0.04367862591497
H           -1.30482166517282        2.36885613831279       -0.34333429075229
H           -0.96951645598402        1.69787813551902        1.23261503432883
