 xtb: 6.5.1 (fef0646)
          01242316583D

 27 27  0     0  0            999 V2000
   -4.1019   -0.6473   -0.3637 N   0  0  0  0  0  0  0  0  0  0  0  0
   -3.2101    0.4264    0.1720 C   0  0  0  0  0  0  0  0  0  0  0  0
   -1.7245    0.2304   -0.1730 C   0  0  0  0  0  0  0  0  0  0  0  0
   -1.1060   -0.9971    0.5382 C   0  0  0  0  0  0  0  0  0  0  0  0
    0.3750   -1.1849    0.1633 C   0  0  0  0  0  0  0  0  0  0  0  0
    1.2078    0.0804    0.4611 C   0  0  0  0  0  0  0  0  0  0  0  0
    2.6375   -0.1119    0.0122 C   0  0  0  0  0  0  0  0  0  0  0  0
    2.8174   -0.3158   -1.3055 O   0  0  0  0  0  0  0  0  0  0  0  0
    3.5352   -0.0783    0.8204 O   0  0  0  0  0  0  0  0  0  0  0  0
    0.5897    1.3162   -0.2245 C   0  0  0  0  0  0  0  0  0  0  0  0
   -0.8915    1.4962    0.1518 C   0  0  0  0  0  0  0  0  0  0  0  0
   -4.0021   -0.7284   -1.3812 H   0  0  0  0  0  0  0  0  0  0  0  0
   -5.0868   -0.4460   -0.1581 H   0  0  0  0  0  0  0  0  0  0  0  0
   -3.8805   -1.5596    0.0500 H   0  0  0  0  0  0  0  0  0  0  0  0
   -3.3254    0.4915    1.2586 H   0  0  0  0  0  0  0  0  0  0  0  0
   -3.5486    1.3911   -0.2220 H   0  0  0  0  0  0  0  0  0  0  0  0
   -1.6518    0.0559   -1.2570 H   0  0  0  0  0  0  0  0  0  0  0  0
   -1.6761   -1.9030    0.3052 H   0  0  0  0  0  0  0  0  0  0  0  0
   -1.1963   -0.8629    1.6212 H   0  0  0  0  0  0  0  0  0  0  0  0
    0.4658   -1.4148   -0.9043 H   0  0  0  0  0  0  0  0  0  0  0  0
    0.8074   -2.0473    0.6857 H   0  0  0  0  0  0  0  0  0  0  0  0
    1.2242    0.2474    1.5481 H   0  0  0  0  0  0  0  0  0  0  0  0
    3.7523   -0.4265   -1.5000 H   0  0  0  0  0  0  0  0  0  0  0  0
    0.6906    1.1972   -1.3091 H   0  0  0  0  0  0  0  0  0  0  0  0
    1.1714    2.2121    0.0265 H   0  0  0  0  0  0  0  0  0  0  0  0
   -1.3164    2.3705   -0.3558 H   0  0  0  0  0  0  0  0  0  0  0  0
   -0.9743    1.7094    1.2228 H   0  0  0  0  0  0  0  0  0  0  0  0
  1  2  1  0  0  0  0
  2  3  1  0  0  0  0
  3  4  1  0  0  0  0
  4  5  1  0  0  0  0
  5  6  1  0  0  0  0
  6  7  1  0  0  0  0
  7  8  1  0  0  0  0
  7  9  2  0  0  0  0
  6 10  1  0  0  0  0
  3 11  1  0  0  0  0
 10 11  1  0  0  0  0
  1 12  1  0  0  0  0
  1 13  1  0  0  0  0
  1 14  1  0  0  0  0
  2 15  1  0  0  0  0
  2 16  1  0  0  0  0
  3 17  1  0  0  0  0
  4 18  1  0  0  0  0
  4 19  1  0  0  0  0
  5 20  1  0  0  0  0
  5 21  1  0  0  0  0
  6 22  1  0  0  0  0
  8 23  1  0  0  0  0
 10 24  1  0  0  0  0
 10 25  1  0  0  0  0
 11 26  1  0  0  0  0
 11 27  1  0  0  0  0
M  CHG  1   1   1
M  END
