28
 xtb: 6.5.1 (fef0646)
N           -2.72491169453781        1.33225859610869       -0.92700488772252
C           -1.81196599768336        1.69176537443936        0.21039832056957
C           -1.54935887477225        3.19469406002425        0.17539536666203
C           -0.55837843105959        0.84133023351772        0.18707066668272
C           -0.66763927074664       -0.54785052799655        0.39763334580263
C            0.43072853218197       -1.35484343997200        0.39353235551592
C            0.68263973813615        1.37450220304230       -0.04222439904154
C            1.84467879110952        0.57062177132413       -0.05474718612778
C            1.71893163900125       -0.81979349501089        0.17134935478070
C            2.88375409510531       -1.62190822564505        0.16115113186515
C            4.10751283725718       -1.06530856692771       -0.06300260826527
C            4.23171734031078        0.31297205793641       -0.28779331972568
C            3.12972991891138        1.11438556297257       -0.28422638164770
Cl          -3.82807621880403       -2.22870111443374        0.10344941207191
H           -3.02774395154030        0.25870395700732       -0.77720917918244
H           -2.29012671628355        1.35142628177366       -1.79499500952016
H           -3.60785829826262        1.81662712354212       -0.88840197077822
H           -2.32107998308423        1.44779651242722        1.17617309741446
H           -1.11544255522132        3.43641959112424       -0.80528447884096
H           -0.91562420845414        3.50659786752456        0.94629949401691
H           -2.50633459229080        3.72637486095344        0.22311482414273
H           -1.63395393102396       -0.99466241491544        0.55432552445782
H            0.34334695589956       -2.42494786860142        0.55321789260224
H            0.78538993414469        2.42382759572811       -0.20639001207715
H            2.80270168612222       -2.68092287368985        0.32176533258663
H            4.99830881572769       -1.67719491959842       -0.07735411067167
H            5.20658001436365        0.75009130143427       -0.46105260228773
H            3.21975193676746        2.17791008253597       -0.44622163258400
