 xtb: 6.5.1 (fef0646)
          01242310043D

 27 27  0     0  0            999 V2000
   -3.0599    0.2517    0.9410 N   0  0  0  0  0  0  0  0  0  0  0  0
   -2.8533   -0.0649   -0.4991 C   0  0  0  0  0  0  0  0  0  0  0  0
   -1.3889   -0.2142   -0.9602 C   0  0  0  0  0  0  0  0  0  0  0  0
   -0.6214   -1.3908   -0.2873 C   0  0  0  0  0  0  0  0  0  0  0  0
    0.0654   -1.0315    1.0431 C   0  0  0  0  0  0  0  0  0  0  0  0
    0.9535    0.2230    0.9088 C   0  0  0  0  0  0  0  0  0  0  0  0
    2.1063   -0.0448   -0.0303 C   0  0  0  0  0  0  0  0  0  0  0  0
    3.3501    0.0604    0.4724 O   0  0  0  0  0  0  0  0  0  0  0  0
    1.8686   -0.3379   -1.1777 O   0  0  0  0  0  0  0  0  0  0  0  0
    0.1167    1.4189    0.4068 C   0  0  0  0  0  0  0  0  0  0  0  0
   -0.5706    1.1110   -0.9360 C   0  0  0  0  0  0  0  0  0  0  0  0
   -4.0640    0.3477    1.1592 H   0  0  0  0  0  0  0  0  0  0  0  0
   -2.6137    1.1407    1.2074 H   0  0  0  0  0  0  0  0  0  0  0  0
   -2.6959   -0.4923    1.5532 H   0  0  0  0  0  0  0  0  0  0  0  0
   -3.3406    0.7139   -1.0984 H   0  0  0  0  0  0  0  0  0  0  0  0
   -3.3982   -0.9891   -0.7280 H   0  0  0  0  0  0  0  0  0  0  0  0
   -1.4543   -0.4893   -2.0306 H   0  0  0  0  0  0  0  0  0  0  0  0
    0.1487   -1.7560   -0.9808 H   0  0  0  0  0  0  0  0  0  0  0  0
   -1.3079   -2.2336   -0.1400 H   0  0  0  0  0  0  0  0  0  0  0  0
    0.6857   -1.8723    1.3821 H   0  0  0  0  0  0  0  0  0  0  0  0
   -0.6767   -0.8806    1.8332 H   0  0  0  0  0  0  0  0  0  0  0  0
    1.3955    0.4682    1.8888 H   0  0  0  0  0  0  0  0  0  0  0  0
    3.9926   -0.1354   -0.2311 H   0  0  0  0  0  0  0  0  0  0  0  0
    0.7745    2.2919    0.2975 H   0  0  0  0  0  0  0  0  0  0  0  0
   -0.6213    1.7045    1.1627 H   0  0  0  0  0  0  0  0  0  0  0  0
    0.2053    1.0638   -1.7126 H   0  0  0  0  0  0  0  0  0  0  0  0
   -1.2229    1.9448   -1.2229 H   0  0  0  0  0  0  0  0  0  0  0  0
  1  2  1  0  0  0  0
  2  3  1  0  0  0  0
  3  4  1  0  0  0  0
  4  5  1  0  0  0  0
  5  6  1  0  0  0  0
  6  7  1  0  0  0  0
  7  8  1  0  0  0  0
  7  9  2  0  0  0  0
  6 10  1  0  0  0  0
  3 11  1  0  0  0  0
 10 11  1  0  0  0  0
  1 12  1  0  0  0  0
  1 13  1  0  0  0  0
  1 14  1  0  0  0  0
  2 15  1  0  0  0  0
  2 16  1  0  0  0  0
  3 17  1  0  0  0  0
  4 18  1  0  0  0  0
  4 19  1  0  0  0  0
  5 20  1  0  0  0  0
  5 21  1  0  0  0  0
  6 22  1  0  0  0  0
  8 23  1  0  0  0  0
 10 24  1  0  0  0  0
 10 25  1  0  0  0  0
 11 26  1  0  0  0  0
 11 27  1  0  0  0  0
M  CHG  1   1   1
M  END
