 xtb: 6.5.1 (fef0646)
          01242310033D

 23 22  0     0  0            999 V2000
   -3.2709    1.5624    0.2579 N   0  0  0  0  0  0  0  0  0  0  0  0
   -2.2497    1.8719   -0.7794 C   0  0  0  0  0  0  0  0  0  0  0  0
   -0.8832    1.4900   -0.3408 C   0  0  0  0  0  0  0  0  0  0  0  0
   -0.1175    0.6229   -1.0003 C   0  0  0  0  0  0  0  0  0  0  0  0
    1.2176    0.1964   -0.5693 C   0  0  0  0  0  0  0  0  0  0  0  0
    2.1469   -0.2458   -1.5107 C   0  0  0  0  0  0  0  0  0  0  0  0
    3.4063   -0.6561   -1.1231 C   0  0  0  0  0  0  0  0  0  0  0  0
    3.7607   -0.6376    0.2118 C   0  0  0  0  0  0  0  0  0  0  0  0
    2.8512   -0.2096    1.1594 C   0  0  0  0  0  0  0  0  0  0  0  0
    1.5914    0.2026    0.7743 C   0  0  0  0  0  0  0  0  0  0  0  0
   -2.6341   -1.7644    1.0512 Cl  0  0  0  0  0  0  0  0  0  0  0  0
   -4.2339    1.7554   -0.0629 H   0  0  0  0  0  0  0  0  0  0  0  0
   -3.1054    2.1143    1.1193 H   0  0  0  0  0  0  0  0  0  0  0  0
   -3.2133    0.5646    0.5216 H   0  0  0  0  0  0  0  0  0  0  0  0
   -2.2792    2.9396   -1.0307 H   0  0  0  0  0  0  0  0  0  0  0  0
   -2.5002    1.3454   -1.7085 H   0  0  0  0  0  0  0  0  0  0  0  0
   -0.5160    1.9287    0.5717 H   0  0  0  0  0  0  0  0  0  0  0  0
   -0.4909    0.1996   -1.9183 H   0  0  0  0  0  0  0  0  0  0  0  0
    1.8706   -0.2585   -2.5525 H   0  0  0  0  0  0  0  0  0  0  0  0
    4.1151   -0.9918   -1.8640 H   0  0  0  0  0  0  0  0  0  0  0  0
    4.7452   -0.9591    0.5141 H   0  0  0  0  0  0  0  0  0  0  0  0
    3.1253   -0.2002    2.2028 H   0  0  0  0  0  0  0  0  0  0  0  0
    0.8798    0.5173    1.5194 H   0  0  0  0  0  0  0  0  0  0  0  0
  1  2  1  0  0  0  0
  2  3  1  0  0  0  0
  3  4  2  0  0  0  0
  4  5  1  0  0  0  0
  5  6  4  0  0  0  0
  6  7  4  0  0  0  0
  7  8  4  0  0  0  0
  8  9  4  0  0  0  0
  5 10  4  0  0  0  0
  9 10  4  0  0  0  0
  1 12  1  0  0  0  0
  1 13  1  0  0  0  0
  1 14  1  0  0  0  0
  2 15  1  0  0  0  0
  2 16  1  0  0  0  0
  3 17  1  0  0  0  0
  4 18  1  0  0  0  0
  6 19  1  0  0  0  0
  7 20  1  0  0  0  0
  8 21  1  0  0  0  0
  9 22  1  0  0  0  0
 10 23  1  0  0  0  0
M  END
