  12

 N          1.0208500000        0.0581400000       -0.0266800000
 C          2.5159200000        0.0238400000       -0.0759000000
 C          3.0412000000       -0.4741500000       -1.4217200000
 C          2.5197000000       -1.8836800000       -1.6489800000
 N          2.0870700000       -3.0530100000       -1.8375200000
 H          0.6934900000        0.4086100000        0.8857700000
 H          0.5954900000       -0.8777700000       -0.1362100000
 H          0.6063600000        0.6708400000       -0.7441000000
 H          2.8325800000       -0.6233500000        0.7483800000
 H          2.8534600000        1.0456800000        0.1201000000
 H          4.1357600000       -0.4846700000       -1.4213500000
 H          2.7013800000        0.1746000000       -2.2359500000
