  21

 N          2.9974537586        0.6226621681       -1.2027626099
 C          2.4432389673        1.5958378038       -0.2146165809
 C          2.9148426178        1.1799224004        1.1797210226
 C          4.4218095447        1.1388440836        1.1986835657
 C          5.1576054125        2.2849907458        1.4812975890
 C          6.5380430313        2.2705056940        1.4255328521
 C          7.2000299913        1.1002577186        1.0739414804
 Br         9.0997731659        1.0777887256        0.9763383761
 C          6.4848739425       -0.0556810630        0.7971733941
 C          5.1005564051       -0.0307151803        0.8530525360
 H          3.0039065730        0.9925023636       -2.1588896387
 H          2.4626537281       -0.2537170299       -1.1899120937
 H          3.9733110386        0.4142345049       -0.8799480265
 H          1.3560199667        1.6132910172       -0.2835934018
 H          2.8314039405        2.5866005433       -0.4543843220
 H          2.5001122199        0.2056057647        1.4419807379
 H          2.5469729566        1.9049401506        1.9040499218
 H          4.6474908661        3.1937025124        1.7619723015
 H          7.1026152068        3.1591331639        1.6576406159
 H          7.0054726267       -0.9670047071        0.5505939765
 H          4.5604040400       -0.9575513803        0.7068883040
