21

N          3.00677        0.31292       -0.94890
C          2.49707        0.52008        0.43399
C          3.05457       -0.54687        1.38046
C          4.56467       -0.55723        1.42287
C          5.27452        0.56310        1.87975
C          6.67122        0.56398        1.88344
C          7.36532       -0.56069        1.44608
Br         9.25415       -0.55843        1.45276
C          6.67492       -1.68870        1.00978
C          5.27774       -1.68942        1.00020
H          2.66616        1.04140       -1.58948
H          2.72369       -0.59831       -1.33109
H          4.03730        0.34608       -0.96973
H          1.40582        0.46927        0.38047
H          2.79381        1.53213        0.72603
H          2.68018       -1.53143        1.07363
H          2.67460       -0.37546        2.39492
H          4.75780        1.44430        2.25749
H          7.20968        1.43850        2.24325
H          7.21761       -2.57643        0.69020
H          4.76266       -2.59317        0.67741
