 xtb: 6.5.1 (fef0646)
          01242310053D

 36 36  0     0  0            999 V2000
   -4.8473   -0.4127   -1.4455 N   0  0  0  0  0  0  0  0  0  0  0  0
   -5.4238   -0.6071   -0.0859 C   0  0  0  0  0  0  0  0  0  0  0  0
   -4.6969    0.2268    0.9658 C   0  0  0  0  0  0  0  0  0  0  0  0
   -3.2197   -0.0331    0.9910 C   0  0  0  0  0  0  0  0  0  0  0  0
   -2.6956   -1.0896    1.7210 C   0  0  0  0  0  0  0  0  0  0  0  0
   -1.3417   -1.3506    1.7097 C   0  0  0  0  0  0  0  0  0  0  0  0
   -0.4641   -0.5673    0.9596 C   0  0  0  0  0  0  0  0  0  0  0  0
    0.9620   -0.8742    0.9720 C   0  0  0  0  0  0  0  0  0  0  0  0
    1.8922   -0.2703    0.2196 C   0  0  0  0  0  0  0  0  0  0  0  0
    3.3185   -0.5750    0.2312 C   0  0  0  0  0  0  0  0  0  0  0  0
    4.1627    0.0763   -0.6677 C   0  0  0  0  0  0  0  0  0  0  0  0
    5.5202   -0.1759   -0.6963 C   0  0  0  0  0  0  0  0  0  0  0  0
    6.3187    0.4716   -1.5812 F   0  0  0  0  0  0  0  0  0  0  0  0
    6.0559   -1.0956    0.1881 C   0  0  0  0  0  0  0  0  0  0  0  0
    5.2413   -1.7514    1.0883 C   0  0  0  0  0  0  0  0  0  0  0  0
    3.8860   -1.4963    1.1131 C   0  0  0  0  0  0  0  0  0  0  0  0
   -0.9997    0.4886    0.2219 C   0  0  0  0  0  0  0  0  0  0  0  0
   -2.3539    0.7458    0.2368 C   0  0  0  0  0  0  0  0  0  0  0  0
   -4.2178    2.9978   -1.8270 Cl  0  0  0  0  0  0  0  0  0  0  0  0
   -4.7854    0.5940   -1.6722 H   0  0  0  0  0  0  0  0  0  0  0  0
   -5.4058   -0.8774   -2.1852 H   0  0  0  0  0  0  0  0  0  0  0  0
   -3.8879   -0.7881   -1.4939 H   0  0  0  0  0  0  0  0  0  0  0  0
   -5.3707   -1.6695    0.1795 H   0  0  0  0  0  0  0  0  0  0  0  0
   -6.4921   -0.3564   -0.0983 H   0  0  0  0  0  0  0  0  0  0  0  0
   -5.1151    0.0427    1.9627 H   0  0  0  0  0  0  0  0  0  0  0  0
   -4.8656    1.2920    0.7705 H   0  0  0  0  0  0  0  0  0  0  0  0
   -3.3618   -1.7100    2.2981 H   0  0  0  0  0  0  0  0  0  0  0  0
   -0.9485   -2.1735    2.2837 H   0  0  0  0  0  0  0  0  0  0  0  0
    1.2689   -1.6596    1.6399 H   0  0  0  0  0  0  0  0  0  0  0  0
    1.5821    0.4996   -0.4647 H   0  0  0  0  0  0  0  0  0  0  0  0
    3.7597    0.7930   -1.3612 H   0  0  0  0  0  0  0  0  0  0  0  0
    7.1148   -1.2848    0.1579 H   0  0  0  0  0  0  0  0  0  0  0  0
    5.6675   -2.4655    1.7754 H   0  0  0  0  0  0  0  0  0  0  0  0
    3.2642   -2.0113    1.8249 H   0  0  0  0  0  0  0  0  0  0  0  0
   -0.3509    1.1153   -0.3654 H   0  0  0  0  0  0  0  0  0  0  0  0
   -2.7575    1.5537   -0.3524 H   0  0  0  0  0  0  0  0  0  0  0  0
  1  2  1  0  0  0  0
  2  3  1  0  0  0  0
  3  4  1  0  0  0  0
  4  5  4  0  0  0  0
  5  6  4  0  0  0  0
  6  7  4  0  0  0  0
  7  8  1  0  0  0  0
  8  9  2  0  0  0  0
  9 10  1  0  0  0  0
 10 11  4  0  0  0  0
 11 12  4  0  0  0  0
 12 13  1  0  0  0  0
 12 14  4  0  0  0  0
 14 15  4  0  0  0  0
 10 16  4  0  0  0  0
 15 16  4  0  0  0  0
  7 17  4  0  0  0  0
  4 18  4  0  0  0  0
 17 18  4  0  0  0  0
  1 20  1  0  0  0  0
  1 21  1  0  0  0  0
  1 22  1  0  0  0  0
  2 23  1  0  0  0  0
  2 24  1  0  0  0  0
  3 25  1  0  0  0  0
  3 26  1  0  0  0  0
  5 27  1  0  0  0  0
  6 28  1  0  0  0  0
  8 29  1  0  0  0  0
  9 30  1  0  0  0  0
 11 31  1  0  0  0  0
 14 32  1  0  0  0  0
 15 33  1  0  0  0  0
 16 34  1  0  0  0  0
 17 35  1  0  0  0  0
 18 36  1  0  0  0  0
M  END
