28
 xtb: 6.5.1 (fef0646)
N           -2.58063156551821       -1.54447096230313        1.15220698219443
C           -1.61137484476378       -1.87415013519164        0.05153741640290
C           -2.30193781768626       -1.92099306262884       -1.30612167131129
C           -0.43607584057616       -0.92586536153281        0.04422444863655
C           -0.62533650949718        0.46597287887374       -0.05309999085754
C            0.43768158960082        1.31835280281585       -0.09239142794565
C            0.83878429095960       -1.42231522272958        0.09760924253791
C            1.96440124020966       -0.57031589967491        0.05836387346407
C            1.76161779293570        0.82634690036940       -0.04023961969500
C            2.89053854006223        1.67711957273248       -0.08538505493332
C            4.15116522069379        1.16116239749462       -0.03501942340676
C            4.35079450164340       -0.22311161636603        0.06269460615518
C            3.28560615409347       -1.07139752605275        0.10811045046039
Cl          -3.94883421046422        1.83562146011460       -0.05465862689355
H           -2.17329982538361       -1.35815733492107        2.03402464235260
H           -3.39053781431334       -2.12476323084959        1.18414569625613
H           -3.03515358001285       -0.53174398915996        0.87594456080173
H           -1.25753282289542       -2.84241650754253        0.32903426033126
H           -3.12559102842643       -2.62552632201564       -1.31019882604093
H           -1.57957210731605       -2.24544752744105       -2.07343076090063
H           -2.67688638944413       -0.95160578578822       -1.61079568939712
H           -1.61987953305724        0.87938564399016       -0.09790980031145
H            0.29549823598839        2.39267968574062       -0.16583082011599
H            0.97883922573525       -2.47888803038028        0.15921416759378
H            2.75335323086923        2.73927097021812       -0.15425475292602
H            5.01402646387944        1.80786054402683       -0.06621565670716
H            5.35165637295107       -0.62966747608406        0.09657769308949
H            3.42831501810579       -2.14043154995453        0.17285570724154
