 xtb: 6.5.1 (fef0646)
          01242317153D

 28 28  0     0  0            999 V2000
   -2.6378   -1.4066    1.0977 N   0  0  0  0  0  0  0  0  0  0  0  0
   -1.6382   -1.8268    0.0637 C   0  0  0  0  0  0  0  0  0  0  0  0
   -2.2854   -1.9268   -1.3123 C   0  0  0  0  0  0  0  0  0  0  0  0
   -0.4428   -0.9035    0.0450 C   0  0  0  0  0  0  0  0  0  0  0  0
   -0.6170    0.4895   -0.0524 C   0  0  0  0  0  0  0  0  0  0  0  0
    0.4514    1.3335   -0.0918 C   0  0  0  0  0  0  0  0  0  0  0  0
    0.8271   -1.4126    0.0924 C   0  0  0  0  0  0  0  0  0  0  0  0
    1.9605   -0.5690    0.0532 C   0  0  0  0  0  0  0  0  0  0  0  0
    1.7701    0.8297   -0.0397 C   0  0  0  0  0  0  0  0  0  0  0  0
    2.9038    1.6738   -0.0804 C   0  0  0  0  0  0  0  0  0  0  0  0
    4.1609    1.1500   -0.0320 C   0  0  0  0  0  0  0  0  0  0  0  0
    4.3498   -0.2361    0.0588 C   0  0  0  0  0  0  0  0  0  0  0  0
    3.2789   -1.0778    0.1005 C   0  0  0  0  0  0  0  0  0  0  0  0
   -3.9139    1.6782   -0.0097 Cl  0  0  0  0  0  0  0  0  0  0  0  0
   -2.1965   -1.3025    2.0207 H   0  0  0  0  0  0  0  0  0  0  0  0
   -3.4065   -2.0858    1.1775 H   0  0  0  0  0  0  0  0  0  0  0  0
   -3.0513   -0.4958    0.8392 H   0  0  0  0  0  0  0  0  0  0  0  0
   -1.2740   -2.8269    0.3499 H   0  0  0  0  0  0  0  0  0  0  0  0
   -3.1233   -2.6242   -1.3106 H   0  0  0  0  0  0  0  0  0  0  0  0
   -1.5695   -2.2581   -2.0654 H   0  0  0  0  0  0  0  0  0  0  0  0
   -2.6665   -0.9558   -1.6268 H   0  0  0  0  0  0  0  0  0  0  0  0
   -1.6165    0.8879   -0.0970 H   0  0  0  0  0  0  0  0  0  0  0  0
    0.3024    2.3976   -0.1649 H   0  0  0  0  0  0  0  0  0  0  0  0
    0.9727   -2.4765    0.1568 H   0  0  0  0  0  0  0  0  0  0  0  0
    2.7589    2.7387   -0.1510 H   0  0  0  0  0  0  0  0  0  0  0  0
    5.0181    1.8030   -0.0643 H   0  0  0  0  0  0  0  0  0  0  0  0
    5.3506   -0.6355    0.0948 H   0  0  0  0  0  0  0  0  0  0  0  0
    3.4247   -2.1426    0.1689 H   0  0  0  0  0  0  0  0  0  0  0  0
  1  2  1  0  0  0  0
  2  3  1  0  0  0  0
  2  4  1  0  0  0  0
  4  5  4  0  0  0  0
  5  6  2  0  0  0  0
  4  7  2  0  0  0  0
  7  8  4  0  0  0  0
  6  9  4  0  0  0  0
  8  9  4  0  0  0  0
  9 10  4  0  0  0  0
 10 11  2  0  0  0  0
 11 12  4  0  0  0  0
  8 13  4  0  0  0  0
 12 13  2  0  0  0  0
  1 15  1  0  0  0  0
  1 16  1  0  0  0  0
  1 17  1  0  0  0  0
  2 18  1  0  0  0  0
  3 19  1  0  0  0  0
  3 20  1  0  0  0  0
  3 21  1  0  0  0  0
  5 22  1  0  0  0  0
  6 23  1  0  0  0  0
  7 24  1  0  0  0  0
 10 25  1  0  0  0  0
 11 26  1  0  0  0  0
 12 27  1  0  0  0  0
 13 28  1  0  0  0  0
M  END
