16

N          1.10394       -0.18293       -0.41663
C          2.56314       -0.31992       -0.50066
C          3.03863       -1.46361        0.39335
C          4.53505       -1.59894        0.36175
C          5.18519       -2.68228       -0.08058
Cl         0.18882        1.20458        1.92118
H          0.72347        0.59110       -0.97077
H          0.84144        0.15620        0.55775
H          0.54550       -1.02567       -0.55475
H          2.99421        0.64059       -0.20011
H          2.80376       -0.50458       -1.55221
H          2.56097       -2.39961        0.07694
H          2.73012       -1.28812        1.43057
H          5.11522       -0.76262        0.75242
H          4.66463       -3.55830       -0.45648
H          6.27141       -2.72414       -0.05729
