28

N          0.88766       -0.28419       -0.72231
C          2.36909       -0.33468       -0.73606
C          2.93138        0.93474       -1.34856
C          4.47641        0.91931       -1.35755
C          5.02090        2.21635       -1.97512
C          6.54331        2.19638       -2.08953
C          7.02264        0.98052       -2.87572
C          6.53246       -0.30944       -2.23194
C          5.01687       -0.31947       -2.09435
Cl         0.11028       -0.31108        2.26525
H          0.54661       -0.99142       -0.03018
H          0.37945       -0.42200       -1.61999
H          0.53188        0.55504       -0.22698
H          2.61833       -1.23565       -1.27042
H          2.68702       -0.42553        0.31284
H          2.58638        1.80985       -0.77736
H          2.55605        1.05929       -2.37212
H          4.82553        0.87484       -0.31604
H          4.71744        3.07594       -1.36523
H          4.58775        2.36515       -2.97195
H          6.98719        2.18307       -1.08614
H          6.88921        3.11262       -2.58090
H          8.11451        0.97483       -2.92766
H          6.64747        1.03964       -3.90486
H          6.99000       -0.42658       -1.24164
H          6.84836       -1.16914       -2.83326
H          4.73811       -1.23345       -1.55795
H          4.56108       -0.38126       -3.09027
