  17

 N         -5.2618126789       -0.0194508776       -0.0010082537
 C         -3.9009239921        0.5928079309        0.0003714810
 C         -2.7844342571       -0.4461705932        0.0006943221
 C         -1.3752650818        0.1660480877        0.0009459991
 C         -0.2678761602       -0.8684377655        0.0002261272
 I          1.5906369417        0.1040605994        0.0004310375
 H         -6.0031421867        0.6970067341       -0.0012744201
 H         -5.4045294003       -0.6120625033        0.8294271517
 H         -5.4032049619       -0.6112980878       -0.8322348757
 H         -3.8000581852        1.2476799095        0.8743000994
 H         -3.7987452326        1.2484692031       -0.8727936121
 H         -2.8988518752       -1.1024373994       -0.8693460093
 H         -2.8992427228       -1.1024397312        0.8706879664
 H         -1.2603882674        0.8240892007        0.8739074960
 H         -1.2605315442        0.8250652849       -0.8712906437
 H         -0.3039673855       -1.5084669005       -0.8828258156
 H         -0.3037158350       -1.5094436401        0.8825545586
          17
        -20.46618827
 N         -1.6816269765        1.6172328354       -0.4581592735
 C         -2.5588577027        0.8281901002        0.4506879131
 C         -2.7423860142       -0.6259379396        0.0175832337
 C         -1.5356155754       -1.5489497198        0.2687590423
 C         -0.3445026024       -1.3409048278       -0.6574584136
 I          1.0251777273        0.0871593493        0.0550004245
 H         -1.6150657851        2.6036466292       -0.1612064289
 H         -2.0440754980        1.6129756698       -1.4237774728
 H         -0.6999529715        1.2260806229       -0.4778371041
 H         -3.5353765346        1.3291552629        0.5012918031
 H         -2.1596383243        0.8655279823        1.4714436453
 H         -3.0052479491       -0.6543551341       -1.0457900420
 H         -3.6179911871       -1.0401279520        0.5362964513
 H         -1.8716506007       -2.5937266464        0.1771773092
 H         -1.2080959631       -1.4508888680        1.3123620635
 H         -0.6534900199       -1.0829201745       -1.6715183860
 H          0.2793370822       -2.2363580959       -0.7247802353
