  22

 N          1.0902866045       -0.1101734901       -0.5437019144
 C          2.5489128017       -0.2035220427       -0.5742953191
 C          3.0225278358       -1.3075450386        0.3751709885
 C          4.5236047410       -1.3348423422        0.4354110339
 C          5.2040264227       -0.4650249846        1.2784558468
 C          6.5865440377       -0.4583942294        1.3163251690
 C          7.3077247204       -1.3220958852        0.5089502624
 C          6.6389030425       -2.1915866234       -0.3346998219
 C          5.2552633421       -2.1951377584       -0.3718293565
 Cl         0.2035494687        0.4522315837        2.1955425509
 H          0.7554554516        0.6367503753       -1.1420491420
 H          0.6225402601        0.1872070838        0.9147954671
 H          0.6674189959       -0.9835418196       -0.8408271765
 H          2.9490686680        0.7569716210       -0.2420629238
 H          2.9330944045       -0.4007554903       -1.5855010838
 H          2.6430281431       -2.2699808991        0.0257784403
 H          2.6080904675       -1.1109546350        1.3641470160
 H          4.6424366621        0.2050717505        1.9131012656
 H          7.1037100806        0.2203935337        1.9785649180
 H          8.3872629456       -1.3188749901        0.5391452414
 H          7.1956308953       -2.8695394314       -0.9652019111
 H          4.7383600087       -2.8790762878       -1.0306295508
