  20

 N          1.0175357623       -0.0513167454        0.0301793964
 C          2.5009709894       -0.0518822797        0.0456189481
 C          3.0251140819       -0.3378048923        1.4483582995
 C          4.5532628479       -0.3439720368        1.4693034678
 C          5.0977372813       -0.6251301150        2.8687604045
 C          6.6218035196       -0.6314342338        2.8890318854
 H          0.6626949062        0.1441594761       -0.9127491737
 H          0.6589180873        0.6643651359        0.6732916380
 H          0.6613864456       -0.9650998989        0.3347016863
 H          2.8628314680        0.9199051246       -0.2896948641
 H          2.8659877649       -0.8125714423       -0.6442054098
 H          2.6708534514       -1.3096895746        1.7943822628
 H          2.6728001510        0.4228759579        2.1462786892
 H          4.9330947601        0.6219886481        1.1310638501
 H          4.9307328946       -1.1059543194        0.7846861734
 H          4.7329034746       -1.5937701237        3.2173590630
 H          4.7355267190        0.1357653635        3.5635683827
 H          7.0129686981       -1.3980430837        2.2233536747
 H          6.9915545876       -0.8324272142        3.8919801413
 H          7.0154921090        0.3310362538        2.5689314843
