 xtb: 6.5.1 (fef0646)
          01242310093D

 25 26  0     0  0            999 V2000
    3.9017   -1.7398    0.3865 N   0  0  0  0  0  0  0  0  0  0  0  0
    4.2095   -0.5183   -0.4124 C   0  0  0  0  0  0  0  0  0  0  0  0
    3.5930    0.7542    0.1733 C   0  0  0  0  0  0  0  0  0  0  0  0
    2.1081    0.8165    0.0623 C   0  0  0  0  0  0  0  0  0  0  0  0
    1.3592    1.9615   -0.1186 C   0  0  0  0  0  0  0  0  0  0  0  0
   -0.0217    1.7452   -0.1667 C   0  0  0  0  0  0  0  0  0  0  0  0
   -0.3910    0.4103   -0.0205 C   0  0  0  0  0  0  0  0  0  0  0  0
   -1.7060   -0.0960   -0.0205 C   0  0  0  0  0  0  0  0  0  0  0  0
   -2.0791   -1.4292    0.1304 C   0  0  0  0  0  0  0  0  0  0  0  0
   -3.4606   -1.6350    0.0910 C   0  0  0  0  0  0  0  0  0  0  0  0
   -4.1845   -0.4834   -0.0897 C   0  0  0  0  0  0  0  0  0  0  0  0
   -3.1459    0.8674   -0.2118 S   0  0  0  0  0  0  0  0  0  0  0  0
    1.0576   -0.5376    0.1645 S   0  0  0  0  0  0  0  0  0  0  0  0
    4.3102   -2.5887   -0.0340 H   0  0  0  0  0  0  0  0  0  0  0  0
    2.8856   -1.8822    0.4580 H   0  0  0  0  0  0  0  0  0  0  0  0
    4.2709   -1.6579    1.3458 H   0  0  0  0  0  0  0  0  0  0  0  0
    3.8533   -0.6562   -1.4405 H   0  0  0  0  0  0  0  0  0  0  0  0
    5.2997   -0.4126   -0.4863 H   0  0  0  0  0  0  0  0  0  0  0  0
    4.0186    1.6374   -0.3179 H   0  0  0  0  0  0  0  0  0  0  0  0
    3.8705    0.8394    1.2296 H   0  0  0  0  0  0  0  0  0  0  0  0
    1.8052    2.9416   -0.2081 H   0  0  0  0  0  0  0  0  0  0  0  0
   -0.7437    2.5373   -0.2993 H   0  0  0  0  0  0  0  0  0  0  0  0
   -1.3611   -2.2242    0.2659 H   0  0  0  0  0  0  0  0  0  0  0  0
   -3.9169   -2.6104    0.1937 H   0  0  0  0  0  0  0  0  0  0  0  0
   -5.2564   -0.4215   -0.1485 H   0  0  0  0  0  0  0  0  0  0  0  0
  1  2  1  0  0  0  0
  2  3  1  0  0  0  0
  3  4  1  0  0  0  0
  4  5  2  0  0  0  0
  5  6  4  0  0  0  0
  6  7  4  0  0  0  0
  7  8  1  0  0  0  0
  8  9  4  0  0  0  0
  9 10  4  0  0  0  0
 10 11  2  0  0  0  0
  8 12  1  0  0  0  0
 11 12  1  0  0  0  0
  4 13  1  0  0  0  0
  7 13  1  0  0  0  0
  1 14  1  0  0  0  0
  1 15  1  0  0  0  0
  1 16  1  0  0  0  0
  2 17  1  0  0  0  0
  2 18  1  0  0  0  0
  3 19  1  0  0  0  0
  3 20  1  0  0  0  0
  5 21  1  0  0  0  0
  6 22  1  0  0  0  0
  9 23  1  0  0  0  0
 10 24  1  0  0  0  0
 11 25  1  0  0  0  0
M  CHG  1   1   1
M  END
