33
2.61
N           -6.76200   0.46818   0.76922
C           -5.28503   0.28173   0.86456
C           -4.62129   0.14488  -0.50138
C           -3.13528  -0.04850  -0.41670
C           -2.58975  -1.32462  -0.32627
C           -1.22943  -1.50613  -0.22372
C           -2.27827   1.04634  -0.38712
C           -0.91682   0.87310  -0.28414
C           -0.36814  -0.40700  -0.20206
N            0.98154  -0.58346  -0.10092
N            1.77343   0.42424  -0.06695
C            3.12494   0.25017   0.01407
C            3.67927  -1.03133   0.04851
C            5.04243  -1.20119   0.12939
C            5.87675  -0.09909   0.17761
C            5.34283   1.17652   0.14449
C            3.98074   1.35431   0.06331
H           -7.19884   0.56042   1.69922
H           -7.20721  -0.33125   0.29449
H           -6.99536   1.31570   0.23014
H           -5.06591  -0.60448   1.47179
H           -4.84306   1.12604   1.40681
H           -4.83910   1.03003  -1.10837
H           -5.06714  -0.69384  -1.04626
H           -3.24600  -2.17913  -0.33921
H           -0.80780  -2.49557  -0.15854
H           -2.69111   2.03986  -0.44765
H           -0.25113   1.71937  -0.26564
H            3.01677  -1.87961   0.00943
H            5.46136  -2.19518   0.15485
H            6.94541  -0.23446   0.24104
H            5.99628   2.03425   0.18257
H            3.55361   2.34318   0.03720
