 xtb: 6.5.1 (fef0646)
          01242310103D

 24 24  0     0  0            999 V2000
   -1.6625    1.5369    0.7353 N   0  0  0  0  0  0  0  0  0  0  0  0
   -2.6477    0.6435    0.0622 C   0  0  0  0  0  0  0  0  0  0  0  0
   -2.2740   -0.8368    0.1459 C   0  0  0  0  0  0  0  0  0  0  0  0
   -1.1158   -1.2517   -0.7758 C   0  0  0  0  0  0  0  0  0  0  0  0
    0.2137   -0.6552   -0.4173 C   0  0  0  0  0  0  0  0  0  0  0  0
    0.7976    0.3392   -1.2131 C   0  0  0  0  0  0  0  0  0  0  0  0
    2.0155    0.9115   -0.8573 C   0  0  0  0  0  0  0  0  0  0  0  0
    2.6738    0.4905    0.2927 C   0  0  0  0  0  0  0  0  0  0  0  0
    2.1134   -0.5046    1.0858 C   0  0  0  0  0  0  0  0  0  0  0  0
    0.8919   -1.0720    0.7337 C   0  0  0  0  0  0  0  0  0  0  0  0
   -1.9038    2.5339    0.6229 H   0  0  0  0  0  0  0  0  0  0  0  0
   -0.7222    1.3909    0.3434 H   0  0  0  0  0  0  0  0  0  0  0  0
   -1.6121    1.3405    1.7461 H   0  0  0  0  0  0  0  0  0  0  0  0
   -2.7534    0.9382   -0.9886 H   0  0  0  0  0  0  0  0  0  0  0  0
   -3.6338    0.8129    0.5148 H   0  0  0  0  0  0  0  0  0  0  0  0
   -3.1561   -1.4478   -0.0879 H   0  0  0  0  0  0  0  0  0  0  0  0
   -2.0203   -1.0824    1.1829 H   0  0  0  0  0  0  0  0  0  0  0  0
   -1.3620   -0.9884   -1.8102 H   0  0  0  0  0  0  0  0  0  0  0  0
   -1.0105   -2.3435   -0.7775 H   0  0  0  0  0  0  0  0  0  0  0  0
    0.3011    0.6551   -2.1156 H   0  0  0  0  0  0  0  0  0  0  0  0
    2.4585    1.6702   -1.4834 H   0  0  0  0  0  0  0  0  0  0  0  0
    3.6245    0.9246    0.5613 H   0  0  0  0  0  0  0  0  0  0  0  0
    2.6308   -0.8436    1.9697 H   0  0  0  0  0  0  0  0  0  0  0  0
    0.4656   -1.8502    1.3446 H   0  0  0  0  0  0  0  0  0  0  0  0
  1  2  1  0  0  0  0
  2  3  1  0  0  0  0
  3  4  1  0  0  0  0
  4  5  1  0  0  0  0
  5  6  4  0  0  0  0
  6  7  4  0  0  0  0
  7  8  4  0  0  0  0
  8  9  4  0  0  0  0
  5 10  4  0  0  0  0
  9 10  4  0  0  0  0
  1 11  1  0  0  0  0
  1 12  1  0  0  0  0
  1 13  1  0  0  0  0
  2 14  1  0  0  0  0
  2 15  1  0  0  0  0
  3 16  1  0  0  0  0
  3 17  1  0  0  0  0
  4 18  1  0  0  0  0
  4 19  1  0  0  0  0
  6 20  1  0  0  0  0
  7 21  1  0  0  0  0
  8 22  1  0  0  0  0
  9 23  1  0  0  0  0
 10 24  1  0  0  0  0
M  CHG  1   1   1
M  END
