 xtb: 6.5.1 (fef0646)
          01242310103D

 27 27  0     0  0            999 V2000
   -3.5089    0.0280    0.7668 N   0  0  0  0  0  0  0  0  0  0  0  0
   -2.3859    0.3351   -0.1672 C   0  0  0  0  0  0  0  0  0  0  0  0
   -1.1413   -0.4975    0.1216 C   0  0  0  0  0  0  0  0  0  0  0  0
    0.0093   -0.2972   -0.8884 C   0  0  0  0  0  0  0  0  0  0  0  0
    1.1364   -1.3524   -0.7018 C   0  0  0  0  0  0  0  0  0  0  0  0
    1.9886   -1.0911    0.5531 C   0  0  0  0  0  0  0  0  0  0  0  0
    2.5724    0.3313    0.5510 C   0  0  0  0  0  0  0  0  0  0  0  0
    1.4649    1.3870    0.4015 C   0  0  0  0  0  0  0  0  0  0  0  0
    0.6146    1.1336   -0.8558 C   0  0  0  0  0  0  0  0  0  0  0  0
   -3.2401    0.2079    1.7451 H   0  0  0  0  0  0  0  0  0  0  0  0
   -3.7881   -0.9616    0.7002 H   0  0  0  0  0  0  0  0  0  0  0  0
   -4.3434    0.5989    0.5641 H   0  0  0  0  0  0  0  0  0  0  0  0
   -2.1514    1.4036   -0.1075 H   0  0  0  0  0  0  0  0  0  0  0  0
   -2.7176    0.1619   -1.1981 H   0  0  0  0  0  0  0  0  0  0  0  0
   -1.4235   -1.5561    0.1392 H   0  0  0  0  0  0  0  0  0  0  0  0
   -0.7841   -0.2827    1.1329 H   0  0  0  0  0  0  0  0  0  0  0  0
   -0.4237   -0.4506   -1.8919 H   0  0  0  0  0  0  0  0  0  0  0  0
    1.7863   -1.3546   -1.5848 H   0  0  0  0  0  0  0  0  0  0  0  0
    0.6987   -2.3576   -0.6605 H   0  0  0  0  0  0  0  0  0  0  0  0
    2.7933   -1.8351    0.6320 H   0  0  0  0  0  0  0  0  0  0  0  0
    1.3772   -1.2344    1.4513 H   0  0  0  0  0  0  0  0  0  0  0  0
    3.2851    0.4313   -0.2762 H   0  0  0  0  0  0  0  0  0  0  0  0
    3.1580    0.5110    1.4630 H   0  0  0  0  0  0  0  0  0  0  0  0
    1.8984    2.3961    0.3749 H   0  0  0  0  0  0  0  0  0  0  0  0
    0.8245    1.3741    1.2906 H   0  0  0  0  0  0  0  0  0  0  0  0
    1.2389    1.2831   -1.7446 H   0  0  0  0  0  0  0  0  0  0  0  0
   -0.1807    1.8838   -0.9359 H   0  0  0  0  0  0  0  0  0  0  0  0
  1  2  1  0  0  0  0
  2  3  1  0  0  0  0
  3  4  1  0  0  0  0
  4  5  1  0  0  0  0
  5  6  1  0  0  0  0
  6  7  1  0  0  0  0
  7  8  1  0  0  0  0
  4  9  1  0  0  0  0
  8  9  1  0  0  0  0
  1 10  1  0  0  0  0
  1 11  1  0  0  0  0
  1 12  1  0  0  0  0
  2 13  1  0  0  0  0
  2 14  1  0  0  0  0
  3 15  1  0  0  0  0
  3 16  1  0  0  0  0
  4 17  1  0  0  0  0
  5 18  1  0  0  0  0
  5 19  1  0  0  0  0
  6 20  1  0  0  0  0
  6 21  1  0  0  0  0
  7 22  1  0  0  0  0
  7 23  1  0  0  0  0
  8 24  1  0  0  0  0
  8 25  1  0  0  0  0
  9 26  1  0  0  0  0
  9 27  1  0  0  0  0
M  CHG  1   1   1
M  END
