29
1.824
N           -3.50409   1.98936   0.76567
C           -2.01753   2.04066   0.70442
C           -1.49941   1.78014  -0.70311
O           -0.09273   1.55245  -0.74265
C            0.32780   0.30871  -0.28025
C           -0.50938  -0.73197   0.09150
C           -0.00217  -1.94622   0.54354
C            1.34612  -2.15343   0.63558
C            2.25052  -1.13616   0.27093
C            3.64957  -1.31071   0.35165
C            4.49901  -0.30377  -0.00947
C            3.99450   0.91693  -0.46534
C            2.64446   1.11494  -0.55399
C            1.74234   0.10055  -0.19064
Cl          -4.06501  -1.27840  -0.19213
H           -3.86569   2.17795   1.71841
H           -3.83682   1.05353   0.48106
H           -3.92715   2.67821   0.12383
H           -1.59554   1.30182   1.39462
H           -1.65156   3.00977   1.06152
H           -1.70131   2.64278  -1.34791
H           -2.00734   0.93430  -1.17695
H           -1.57622  -0.61202   0.02885
H           -0.68379  -2.73386   0.82395
H            1.73142  -3.09634   0.98670
H            4.03860  -2.25182   0.70314
H            5.56592  -0.44903   0.05659
H            4.67451   1.70493  -0.74798
H            2.24606   2.05248  -0.90415
