29
 xtb: 6.5.1 (fef0646)
N           -3.53037436675464        1.81771633383124        0.72380274387938
C           -2.04712297823450        2.01923160824913        0.68905498406781
C           -1.49390195429090        1.78295281724781       -0.71049192126764
O           -0.08520579690001        1.55759736240095       -0.73592564607018
C            0.33140989748454        0.31315453882732       -0.27817894877272
C           -0.50683236947368       -0.72708270607679        0.09266277662594
C           -0.00252109183351       -1.94328968649738        0.54226605998164
C            1.34538228687083       -2.15342563318727        0.63350659229094
C            2.25129802390170       -1.13694154430094        0.27012125605668
C            3.65003807600890       -1.31398191406080        0.35009657769196
C            4.50097528826737       -0.30826622836684       -0.01089554260745
C            3.99870138732269        0.91377548490899       -0.46561784818847
C            2.64898788593981        1.11431115823874       -0.55307431780973
C            1.74559102775672        0.10133980670734       -0.18964207205548
Cl          -4.04580329938868       -1.13675122636560       -0.14631730070504
H           -3.88195060286428        2.12822478947484        1.70401266091592
H           -3.81650646391186        0.98966095627161        0.47195839494763
H           -3.94958031478401        2.61672718061816        0.10686109462768
H           -1.58748407751285        1.30866070257728        1.39423226975789
H           -1.68571056802370        3.01374280883500        1.05537138546270
H           -1.69727723220423        2.64577116604708       -1.34770078846334
H           -2.00294574021893        0.93689265880687       -1.18538044632248
H           -1.57521211247658       -0.60837072595517        0.03025529274269
H           -0.68410813410560       -2.73279718368204        0.82379087743348
H            1.73067712872620       -3.09674146467309        0.98561372596697
H            4.03824740271252       -2.25312818050036        0.70230139607070
H            5.56640706472069       -0.45112642431954        0.05582650747194
H            4.67618117055675        1.70355139832211       -0.74816922652869
H            2.24771294622767        2.05257584092394       -0.90344790478933
