 xtb: 6.5.1 (fef0646)
          01242310123D

 29 29  0     0  0            999 V2000
   -3.5041    1.9894    0.7657 N   0  0  0  0  0  0  0  0  0  0  0  0
   -2.0175    2.0407    0.7044 C   0  0  0  0  0  0  0  0  0  0  0  0
   -1.4994    1.7801   -0.7031 C   0  0  0  0  0  0  0  0  0  0  0  0
   -0.0927    1.5524   -0.7427 O   0  0  0  0  0  0  0  0  0  0  0  0
    0.3278    0.3087   -0.2803 C   0  0  0  0  0  0  0  0  0  0  0  0
   -0.5094   -0.7320    0.0915 C   0  0  0  0  0  0  0  0  0  0  0  0
   -0.0022   -1.9462    0.5435 C   0  0  0  0  0  0  0  0  0  0  0  0
    1.3461   -2.1534    0.6356 C   0  0  0  0  0  0  0  0  0  0  0  0
    2.2505   -1.1362    0.2709 C   0  0  0  0  0  0  0  0  0  0  0  0
    3.6496   -1.3107    0.3516 C   0  0  0  0  0  0  0  0  0  0  0  0
    4.4990   -0.3038   -0.0095 C   0  0  0  0  0  0  0  0  0  0  0  0
    3.9945    0.9169   -0.4654 C   0  0  0  0  0  0  0  0  0  0  0  0
    2.6445    1.1149   -0.5540 C   0  0  0  0  0  0  0  0  0  0  0  0
    1.7423    0.1005   -0.1906 C   0  0  0  0  0  0  0  0  0  0  0  0
   -4.0650   -1.2784   -0.1921 Cl  0  0  0  0  0  0  0  0  0  0  0  0
   -3.8657    2.1780    1.7184 H   0  0  0  0  0  0  0  0  0  0  0  0
   -3.8368    1.0536    0.4811 H   0  0  0  0  0  0  0  0  0  0  0  0
   -3.9271    2.6782    0.1238 H   0  0  0  0  0  0  0  0  0  0  0  0
   -1.5955    1.3018    1.3946 H   0  0  0  0  0  0  0  0  0  0  0  0
   -1.6515    3.0098    1.0615 H   0  0  0  0  0  0  0  0  0  0  0  0
   -1.7013    2.6428   -1.3479 H   0  0  0  0  0  0  0  0  0  0  0  0
   -2.0073    0.9343   -1.1769 H   0  0  0  0  0  0  0  0  0  0  0  0
   -1.5762   -0.6120    0.0289 H   0  0  0  0  0  0  0  0  0  0  0  0
   -0.6838   -2.7339    0.8240 H   0  0  0  0  0  0  0  0  0  0  0  0
    1.7314   -3.0963    0.9867 H   0  0  0  0  0  0  0  0  0  0  0  0
    4.0386   -2.2518    0.7031 H   0  0  0  0  0  0  0  0  0  0  0  0
    5.5659   -0.4491    0.0566 H   0  0  0  0  0  0  0  0  0  0  0  0
    4.6745    1.7049   -0.7480 H   0  0  0  0  0  0  0  0  0  0  0  0
    2.2461    2.0525   -0.9042 H   0  0  0  0  0  0  0  0  0  0  0  0
  1  2  1  0  0  0  0
  2  3  1  0  0  0  0
  3  4  1  0  0  0  0
  4  5  1  0  0  0  0
  5  6  4  0  0  0  0
  6  7  4  0  0  0  0
  7  8  2  0  0  0  0
  8  9  4  0  0  0  0
  9 10  4  0  0  0  0
 10 11  2  0  0  0  0
 11 12  4  0  0  0  0
 12 13  2  0  0  0  0
  5 14  4  0  0  0  0
  9 14  4  0  0  0  0
 13 14  4  0  0  0  0
  1 16  1  0  0  0  0
  1 17  1  0  0  0  0
  1 18  1  0  0  0  0
  2 19  1  0  0  0  0
  2 20  1  0  0  0  0
  3 21  1  0  0  0  0
  3 22  1  0  0  0  0
  6 23  1  0  0  0  0
  7 24  1  0  0  0  0
  8 25  1  0  0  0  0
 10 26  1  0  0  0  0
 11 27  1  0  0  0  0
 12 28  1  0  0  0  0
 13 29  1  0  0  0  0
M  END
