40
0.0
N           -6.92789   0.17482   1.88014
C           -7.54062  -0.85719   0.99987
C           -6.92027  -0.84286  -0.39433
C           -5.44303  -1.01869  -0.36050
C           -4.79471  -2.21244  -0.33972
C           -3.38157  -2.09275  -0.28709
C           -2.94155  -0.79961  -0.26444
C           -1.56239  -0.38471  -0.20900
C           -1.12397   0.91206  -0.17839
C            0.28317   1.03956  -0.12445
C            0.94792  -0.15853  -0.11344
C            2.37725  -0.32086  -0.06268
C            3.04412  -1.51781  -0.05825
C            4.45099  -1.38810  -0.00345
C            4.88688  -0.09081   0.03547
C            6.26501   0.32911   0.09483
C            6.69986   1.62489   0.13610
C            8.11443   1.75112   0.19131
C            8.75841   0.56031   0.19220
S            7.63592  -0.74850   0.12502
S            3.52255   0.98913   0.00269
S           -0.19988  -1.46670  -0.17034
S           -4.29976   0.28985  -0.31100
Cl          -6.60219   2.74883  -0.35003
H           -6.93429   1.09307   1.39982
H           -5.93934  -0.04860   2.07124
H           -7.41544   0.27344   2.78590
H           -8.62398  -0.69471   0.93677
H           -7.41249  -1.84594   1.45623
H           -7.14625   0.10905  -0.88822
H           -7.36575  -1.61993  -1.02738
H           -5.31098  -3.16072  -0.35681
H           -2.71046  -2.93768  -0.26477
H           -1.79881   1.75414  -0.19428
H            0.79531   1.98888  -0.09493
H            2.53364  -2.46800  -0.09394
H            5.12733  -2.22919   0.00725
H            6.02457   2.46685   0.12730
H            8.62181   2.70450   0.22883
H            9.82401   0.42817   0.22936
