41
 xtb: 6.5.1 (fef0646)
N            6.62199649015329       -0.12227112566091       -0.25879839892813
C            5.95157737505282        0.59239770966638        0.87121313613242
C            4.52794038076739        1.03594225883312        0.54559626947475
C            3.55800981296264       -0.10933081617253        0.26068186368527
C            2.13333250599700        0.38044444419697       -0.00503478255145
C            1.15702103199184       -0.75337561760094       -0.31839504534604
C           -0.27133392613792       -0.26438030315866       -0.56170265831675
C           -1.24352773346569       -1.39989705061562       -0.88491501222322
C           -2.67254866304108       -0.92670814640868       -1.16603438761344
C           -3.37431741587410       -0.33079503694317        0.05512414823213
C           -4.81859820546130        0.08328872637677       -0.22929253046466
C           -5.52595365956118        0.67173538953225        0.99238662477826
C           -6.96154434435681        1.08396973301063        0.70275152052995
H            6.54033565867094        0.44675844660862       -1.12336327885311
H            6.20831467995175       -1.04833353958925       -0.43909405588752
H            7.63359873816309       -0.25818216165244       -0.05912027279534
H            6.55412740626781        1.43140425082689        1.18837656730205
H            5.91554171183819       -0.09482232363769        1.74701664343401
H            4.57298935136839        1.70859642955122       -0.33094970759041
H            4.13719916879515        1.65821180295004        1.35386799179041
H            3.54997210019527       -0.79412963185738        1.10216522354626
H            3.90891722333701       -0.68670891567085       -0.59731440687061
H            2.14165828801674        1.09698596205884       -0.85407490984030
H            1.77176497474989        0.96643695911140        0.84117940332381
H            1.16349462920400       -1.46516834605173        0.51055089325505
H            1.50965363572685       -1.31308245084903       -1.18786865145798
H           -0.27757954460733        0.46041576166260       -1.38678594875637
H           -0.61971790471041        0.29517038921272        0.31133772273245
H           -1.24962929407104       -2.11449975111805       -0.04453804974742
H           -0.85904412113209       -1.96847901150587       -1.73489288382023
H           -3.27196381625990       -1.77257742365973       -1.53462319848627
H           -2.66326409335145       -0.20195536132439       -1.97532684685175
H           -2.81577621967543        0.53932563310334        0.41846216707482
H           -3.35220594465436       -1.04887885775579        0.88533071946145
H           -5.38226333749925       -0.78933525685870       -0.58943956670359
H           -4.84110903009922        0.79807035603982       -1.05264927670778
H           -4.95530642478552        1.53768861186599        1.35389933803188
H           -5.49908432442802       -0.05042130473185        1.81482222006429
H           -7.00717115977094        1.82977608688722       -0.09044949778036
H           -7.45317361709326        1.50300808168101        1.58007932624271
H           -7.55526141411270        0.22751350074140        0.37226177996665
