22
1.7
N           -1.93277  -1.81332   0.26971
C           -1.05810  -2.36838  -0.80207
C            0.42539  -2.27679  -0.45002
C            0.90324  -0.86551  -0.26755
C            1.15369  -0.35631   0.99900
C            1.58673   0.94459   1.16275
C            1.76951   1.75587   0.06107
C            1.51674   1.26417  -1.20363
C            1.08550  -0.03760  -1.36558
Cl          -1.73930   1.69406   0.58502
H           -1.76352  -0.80061   0.39786
H           -1.74670  -2.27370   1.17130
H           -2.93261  -1.93410   0.05339
H           -1.24818  -1.83367  -1.73994
H           -1.33623  -3.41161  -0.99670
H            1.03362  -2.75958  -1.22396
H            0.61865  -2.84343   0.46709
H            1.00727  -0.98821   1.85887
H            1.77921   1.32770   2.15207
H            2.10586   2.77236   0.18841
H            1.65563   1.89679  -2.06564
H            0.88786  -0.42317  -2.35179
