22
0.698
N           -1.26017  -0.67089   0.70151
C           -0.85891  -1.27919  -0.59826
C            0.59731  -1.73914  -0.59485
C            1.56026  -0.60632  -0.38867
C            2.10744  -0.35606   0.86184
C            2.96270   0.71040   1.05631
C            3.27904   1.54357   0.00228
C            2.73752   1.30896  -1.24547
C            1.88200   0.24230  -1.43799
Cl          -4.58022   0.45726   0.54845
H           -2.24201  -0.33952   0.68759
H           -0.66069   0.13516   0.92666
H           -1.16653  -1.34884   1.47084
H           -1.01012  -0.55005  -1.40278
H           -1.52544  -2.11861  -0.83162
H            0.84209  -2.25025  -1.53328
H            0.74495  -2.48618   0.19223
H            1.85569  -1.00312   1.68534
H            3.38187   0.89364   2.03271
H            3.94629   2.37695   0.15369
H            2.98091   1.95985  -2.06991
H            1.45315   0.06132  -2.40947
