22
0.05
N           -1.30329   1.34593  -1.33271
C           -0.69014   2.26977  -0.34018
C           -0.09169   1.51542   0.84489
C            0.90882   0.47791   0.42557
C            0.51456  -0.83680   0.21615
C            1.42328  -1.78670  -0.20710
C            2.73839  -1.43148  -0.43302
C            3.14151  -0.12512  -0.23839
C            2.23126   0.82406   0.18517
Cl          -3.06104  -1.07547   0.47071
H           -0.58216   0.75929  -1.78123
H           -1.81260   1.84614  -2.08080
H           -1.96623   0.69867  -0.86586
H           -1.44086   2.99060   0.00765
H            0.08762   2.86564  -0.83324
H           -0.89281   1.02670   1.41130
H            0.38056   2.21161   1.54856
H           -0.51725  -1.10599   0.37535
H            1.10436  -2.80535  -0.36457
H            3.44902  -2.17268  -0.76410
H            4.16756   0.15526  -0.41907
H            2.54142   1.84634   0.32989
