30
 xtb: 6.5.1 (fef0646)
N           -3.69493882317194        1.41055170293611       -0.33029134198998
C           -2.36357210605663        1.74524552894783        0.26828948245632
C           -1.25198584821864        0.88212021533391       -0.31832106752879
C            0.11568007466550        1.11853201917409        0.32289895699285
C            1.20722022210339        0.22894279300526       -0.27408466065086
C            2.58127698503329        0.45256189318041        0.35722174511774
C            3.66985861547773       -0.42613700972639       -0.25950961978495
C            5.04836859144939       -0.20037560040469        0.36312436545733
C            6.12825944563855       -1.06756309170451       -0.26708381252629
Cl          -4.37006300418393       -1.66242661344740        0.08428855102637
H           -3.64710655533584        1.70892855976567       -1.36423630523344
H           -4.41559848718660        2.10764537516355        0.05710770814693
H           -3.94420689786733        0.52807682170542       -0.22789591410313
H           -2.40356251545304        1.62654699972981        1.35448525395033
H           -2.06981333863174        2.83861686406253        0.14577010391571
H           -1.18637540598129        1.05997835595289       -1.39616016456632
H           -1.54165756510616       -0.15650942698906       -0.20587183314754
H            0.05448623811863        0.94871445439358        1.40627706473468
H            0.40702741606658        2.17211548264613        0.21989717366022
H            1.26599001739812        0.39534897719730       -1.35532076549012
H            0.91929596709847       -0.82678776842160       -0.16622070354666
H            2.52664996610519        0.26855815349990        1.43638184796123
H            2.86184800567994        1.50644618217740        0.26031391391544
H            3.72025627688639       -0.24661964448031       -1.34081074131957
H            3.39122735379406       -1.48378185172763       -0.16235771873001
H            4.99424135349793       -0.38708668543655        1.44237874811549
H            5.31594455990733        0.86101064831016        0.27196770431516
H            5.89750304318753       -2.12851107459301       -0.15726188512541
H            7.10845009277713       -0.89638894501770        0.18447409689356
H            6.22193137346922       -0.86841044279820       -1.33665097975059
