22
 xtb: 6.5.1 (fef0646)
N           -2.10142739425770       -1.53255733287111        1.52510888796897
C           -2.95086522703208       -0.88163692600401        0.48886004511237
C           -2.16845204769917       -0.55758604388310       -0.78408365969220
C           -0.96442380591053        0.29779792256232       -0.52362889772716
C           -1.09038179371955        1.67540640077880       -0.39408815551571
C            0.01014984819038        2.45895576299201       -0.12010899994398
C            1.25622908665606        1.87358635833863        0.03358855061939
Cl           2.64251029498927        2.84835047065526        0.37368398544678
C            1.39112993550074        0.50031703955995       -0.08519874866393
C            0.28804285548518       -0.27990093766472       -0.35785128688136
Cl           0.15072028168649       -3.89064097586500       -0.50364545171113
H           -1.53383045803192       -2.38781523808282        1.02779483687444
H           -2.56825245172641       -1.97543208701754        2.27515353839747
H           -1.32823483144194       -0.95574169610216        1.83478763441058
H           -3.34657494805879       -0.02508332486001        0.92908878179886
H           -3.76869769056443       -1.57287026271683        0.23537499675468
H           -2.82069611997511       -0.04246483584205       -1.50397518627701
H           -1.83566351692612       -1.46742923577662       -1.31044321816135
H           -2.06224008449408        2.12740569207312       -0.49061411035891
H           -0.08681233113252        3.52980472368558        0.00209833461271
H            2.37311923006010        0.06881232512840        0.01901150596445
H            0.39993293753001       -1.33926098303490       -0.46693105527312
