 xtb: 6.5.1 (fef0646)
          01242317063D

 22 21  0     0  0            999 V2000
   -5.8490   -0.5173    0.7370 N   0  0  0  0  0  0  0  0  0  0  0  0
   -4.3589   -0.5466    0.7920 C   0  0  0  0  0  0  0  0  0  0  0  0
   -3.7182    0.2045   -0.3701 C   0  0  0  0  0  0  0  0  0  0  0  0
   -2.2184    0.1857   -0.3201 C   0  0  0  0  0  0  0  0  0  0  0  0
   -1.5202    1.1861    0.3452 C   0  0  0  0  0  0  0  0  0  0  0  0
   -0.1439    1.1536    0.4190 C   0  0  0  0  0  0  0  0  0  0  0  0
    0.5572    0.1132   -0.1674 C   0  0  0  0  0  0  0  0  0  0  0  0
    2.2891    0.0705   -0.0769 Cl  0  0  0  0  0  0  0  0  0  0  0  0
   -0.1290   -0.8942   -0.8249 C   0  0  0  0  0  0  0  0  0  0  0  0
   -1.5054   -0.8580   -0.8969 C   0  0  0  0  0  0  0  0  0  0  0  0
    5.5211   -0.0043    0.0739 Cl  0  0  0  0  0  0  0  0  0  0  0  0
   -6.1962    0.4519    0.7693 H   0  0  0  0  0  0  0  0  0  0  0  0
   -6.2708   -1.0306    1.5211 H   0  0  0  0  0  0  0  0  0  0  0  0
   -6.1885   -0.9385   -0.1360 H   0  0  0  0  0  0  0  0  0  0  0  0
   -4.0077   -1.5849    0.7966 H   0  0  0  0  0  0  0  0  0  0  0  0
   -4.0138   -0.1194    1.7406 H   0  0  0  0  0  0  0  0  0  0  0  0
   -4.0699    1.2412   -0.3802 H   0  0  0  0  0  0  0  0  0  0  0  0
   -4.0565   -0.2229   -1.3196 H   0  0  0  0  0  0  0  0  0  0  0  0
   -2.0669    1.9906    0.8070 H   0  0  0  0  0  0  0  0  0  0  0  0
    0.4007    1.9287    0.9309 H   0  0  0  0  0  0  0  0  0  0  0  0
    0.4270   -1.7000   -1.2729 H   0  0  0  0  0  0  0  0  0  0  0  0
   -2.0407   -1.6441   -1.4016 H   0  0  0  0  0  0  0  0  0  0  0  0
  1  2  1  0  0  0  0
  2  3  1  0  0  0  0
  3  4  1  0  0  0  0
  4  5  4  0  0  0  0
  5  6  4  0  0  0  0
  6  7  4  0  0  0  0
  7  8  1  0  0  0  0
  7  9  4  0  0  0  0
  4 10  4  0  0  0  0
  9 10  4  0  0  0  0
  1 12  1  0  0  0  0
  1 13  1  0  0  0  0
  1 14  1  0  0  0  0
  2 15  1  0  0  0  0
  2 16  1  0  0  0  0
  3 17  1  0  0  0  0
  3 18  1  0  0  0  0
  5 19  1  0  0  0  0
  6 20  1  0  0  0  0
  9 21  1  0  0  0  0
 10 22  1  0  0  0  0
M  END
