 xtb: 6.5.1 (fef0646)
          01242317093D

 18 16  0     0  0            999 V2000
   -1.8417    1.7654   -0.5376 N   0  0  0  0  0  0  0  0  0  0  0  0
   -0.6515    2.2965    0.1843 C   0  0  0  0  0  0  0  0  0  0  0  0
    0.6414    1.5818   -0.1957 C   0  0  0  0  0  0  0  0  0  0  0  0
    0.6673    0.1160    0.2155 C   0  0  0  0  0  0  0  0  0  0  0  0
    1.9856   -0.5279   -0.1149 C   0  0  0  0  0  0  0  0  0  0  0  0
    3.0315   -0.1741    0.6651 O   0  0  0  0  0  0  0  0  0  0  0  0
    2.0695   -1.2986   -1.0465 O   0  0  0  0  0  0  0  0  0  0  0  0
   -2.4325   -1.5813    0.3706 Cl  0  0  0  0  0  0  0  0  0  0  0  0
   -2.6961    2.2949   -0.3081 H   0  0  0  0  0  0  0  0  0  0  0  0
   -2.0143    0.7794   -0.2926 H   0  0  0  0  0  0  0  0  0  0  0  0
   -1.7038    1.8123   -1.5547 H   0  0  0  0  0  0  0  0  0  0  0  0
   -0.8148    2.2134    1.2649 H   0  0  0  0  0  0  0  0  0  0  0  0
   -0.5605    3.3705   -0.0189 H   0  0  0  0  0  0  0  0  0  0  0  0
    1.5021    2.0891    0.2569 H   0  0  0  0  0  0  0  0  0  0  0  0
    0.7992    1.6554   -1.2770 H   0  0  0  0  0  0  0  0  0  0  0  0
   -0.1274   -0.4403   -0.2883 H   0  0  0  0  0  0  0  0  0  0  0  0
    0.4829    0.0193    1.2892 H   0  0  0  0  0  0  0  0  0  0  0  0
    3.8235   -0.6354    0.3560 H   0  0  0  0  0  0  0  0  0  0  0  0
  1  2  1  0  0  0  0
  2  3  1  0  0  0  0
  3  4  1  0  0  0  0
  4  5  1  0  0  0  0
  5  6  1  0  0  0  0
  5  7  2  0  0  0  0
  1  9  1  0  0  0  0
  1 10  1  0  0  0  0
  1 11  1  0  0  0  0
  2 12  1  0  0  0  0
  2 13  1  0  0  0  0
  3 14  1  0  0  0  0
  3 15  1  0  0  0  0
  4 16  1  0  0  0  0
  4 17  1  0  0  0  0
  6 18  1  0  0  0  0
M  END
