16
2.263
N           -0.31319   1.10593   0.98030
C           -1.31998   0.99473  -0.10955
C           -1.25862  -0.36329  -0.80589
C           -1.54304  -1.49985   0.11755
C           -2.75699  -1.77569   0.55484
Cl           2.82789   0.47078  -0.36951
H           -0.32853   2.03298   1.43826
H            0.64441   0.94955   0.61124
H           -0.47744   0.39340   1.70918
H           -1.16602   1.80411  -0.83508
H           -2.32335   1.15432   0.30358
H           -0.26878  -0.49261  -1.26236
H           -1.96872  -0.39563  -1.64273
H           -0.70799  -2.08597   0.47239
H           -3.60335  -1.19500   0.23995
H           -2.94737  -2.58446   1.23633
