 xtb: 6.5.1 (fef0646)
          01242316593D

 28 28  0     0  0            999 V2000
   -2.7725    0.3121    1.5178 N   0  0  0  0  0  0  0  0  0  0  0  0
   -3.0007   -0.8314    0.5886 C   0  0  0  0  0  0  0  0  0  0  0  0
   -2.2293   -0.6698   -0.7195 C   0  0  0  0  0  0  0  0  0  0  0  0
   -0.7549   -0.4937   -0.5076 C   0  0  0  0  0  0  0  0  0  0  0  0
    0.0590   -1.5782   -0.3257 C   0  0  0  0  0  0  0  0  0  0  0  0
    1.4446   -1.4257   -0.0905 C   0  0  0  0  0  0  0  0  0  0  0  0
    2.3022   -2.5342    0.0960 C   0  0  0  0  0  0  0  0  0  0  0  0
    3.6336   -2.3516    0.3219 C   0  0  0  0  0  0  0  0  0  0  0  0
    4.1749   -1.0596    0.3734 C   0  0  0  0  0  0  0  0  0  0  0  0
    3.3767    0.0310    0.1988 C   0  0  0  0  0  0  0  0  0  0  0  0
    1.9910   -0.1214   -0.0374 C   0  0  0  0  0  0  0  0  0  0  0  0
    1.1304    0.9848   -0.2173 C   0  0  0  0  0  0  0  0  0  0  0  0
   -0.1999    0.7992   -0.4417 C   0  0  0  0  0  0  0  0  0  0  0  0
   -2.8206    3.2324   -0.4632 Cl  0  0  0  0  0  0  0  0  0  0  0  0
   -1.7961    0.3270    1.8427 H   0  0  0  0  0  0  0  0  0  0  0  0
   -3.3828    0.2748    2.3467 H   0  0  0  0  0  0  0  0  0  0  0  0
   -2.9392    1.2091    1.0308 H   0  0  0  0  0  0  0  0  0  0  0  0
   -4.0738   -0.9335    0.3846 H   0  0  0  0  0  0  0  0  0  0  0  0
   -2.7036   -1.7642    1.0820 H   0  0  0  0  0  0  0  0  0  0  0  0
   -2.6148    0.1971   -1.2675 H   0  0  0  0  0  0  0  0  0  0  0  0
   -2.4002   -1.5296   -1.3775 H   0  0  0  0  0  0  0  0  0  0  0  0
   -0.3609   -2.5681   -0.3584 H   0  0  0  0  0  0  0  0  0  0  0  0
    1.8869   -3.5270    0.0568 H   0  0  0  0  0  0  0  0  0  0  0  0
    4.2780   -3.2045    0.4627 H   0  0  0  0  0  0  0  0  0  0  0  0
    5.2302   -0.9314    0.5531 H   0  0  0  0  0  0  0  0  0  0  0  0
    3.7927    1.0235    0.2395 H   0  0  0  0  0  0  0  0  0  0  0  0
    1.5412    1.9790   -0.1692 H   0  0  0  0  0  0  0  0  0  0  0  0
   -0.8528    1.6484   -0.5590 H   0  0  0  0  0  0  0  0  0  0  0  0
  1  2  1  0  0  0  0
  2  3  1  0  0  0  0
  3  4  1  0  0  0  0
  4  5  2  0  0  0  0
  5  6  4  0  0  0  0
  6  7  4  0  0  0  0
  7  8  2  0  0  0  0
  8  9  4  0  0  0  0
  9 10  2  0  0  0  0
  6 11  4  0  0  0  0
 10 11  4  0  0  0  0
 11 12  4  0  0  0  0
  4 13  4  0  0  0  0
 12 13  2  0  0  0  0
  1 15  1  0  0  0  0
  1 16  1  0  0  0  0
  1 17  1  0  0  0  0
  2 18  1  0  0  0  0
  2 19  1  0  0  0  0
  3 20  1  0  0  0  0
  3 21  1  0  0  0  0
  5 22  1  0  0  0  0
  7 23  1  0  0  0  0
  8 24  1  0  0  0  0
  9 25  1  0  0  0  0
 10 26  1  0  0  0  0
 12 27  1  0  0  0  0
 13 28  1  0  0  0  0
M  END
