25
 xtb: 6.5.1 (fef0646)
N           -1.45939239002234       -1.93594002069710        0.24706523034506
C            0.02800587589080       -1.84551895080410        0.25119812482616
C            0.56881445433975       -0.77415315057578        1.21040841413011
C            0.13172588517268        0.66265010795827        0.81980817535565
C            0.84156641297012        1.16536234190718       -0.44913460538444
C            2.37018397019266        1.09539079144587       -0.29240969386199
C            2.82437077520020       -0.33062493222893        0.06492503403064
C            2.11542449415571       -0.84299974247803        1.33185030514879
Cl          -2.81787882279974        1.31577470629326       -1.26981511711627
H           -1.88968310155746       -0.97695686918160       -0.15408206948598
H           -1.87044948504749       -1.99208392617804        1.16082436158742
H           -1.84923246784855       -2.62267486485325       -0.38078103572364
H            0.37044454085103       -1.61141426233188       -0.77990965443725
H            0.38904479707138       -2.79501384024642        0.49731920415641
H            0.12625189614800       -0.98349156557770        2.19280875803290
H            0.38344112031639        1.35979431477233        1.66466313354051
H           -0.94270813054649        0.75695554342900        0.70986654975679
H            0.55858692953723        2.22387812201464       -0.66692713000519
H            0.53942610251140        0.60066226531829       -1.30184308618069
H            2.71735038668806        1.77217388444408        0.51257421702008
H            2.89280253971803        1.44659555286025       -1.19451341736183
H            3.90850575377681       -0.39788488611763        0.18379658593308
H            2.59401027288519       -1.00227415866233       -0.78824474465181
H            2.44021632488267       -0.27801425900374        2.18872490607518
H            2.39211675580679       -1.89372856267257        1.52740123556026
