30
1.35
N           -2.54070   1.47431   0.05591
C           -1.35944   1.29905  -0.83824
C           -0.58446   0.01791  -0.54319
C           -0.00809  -0.04810   0.87352
C            0.97544   1.07819   1.20735
C            2.19402   1.14497   0.28257
C            3.06563  -0.11037   0.32516
C            4.30865  -0.00493  -0.55975
C            5.16641  -1.26107  -0.52099
Cl          -4.37054  -1.50793  -0.10149
H           -2.25243   1.59948   1.03603
H           -3.14516   0.63879   0.01917
H           -3.11281   2.29213  -0.20878
H           -0.69873   2.16903  -0.74949
H           -1.69508   1.29991  -1.88301
H            0.22505  -0.10464  -1.27317
H           -1.24651  -0.84105  -0.70975
H            0.48615  -1.01594   1.02487
H           -0.83213  -0.04412   1.59793
H            1.32187   0.96781   2.24297
H            0.44542   2.03871   1.18927
H            2.81073   2.01559   0.54102
H            1.87063   1.32890  -0.74833
H            2.47801  -0.98429   0.02086
H            3.36601  -0.31528   1.35989
H            4.90055   0.86704  -0.25219
H            4.00159   0.21138  -1.59136
H            5.51080  -1.47316   0.49300
H            6.05051  -1.17512  -1.15664
H            4.60402  -2.13397  -0.85794
