47

N          4.95814        3.57269        2.06709
C          4.53710        2.18190        2.39574
C          3.99801        1.46670        1.15286
C          5.00561        1.39578        0.04248
C          4.91635        1.92550       -1.22593
C          6.09747        1.68855       -1.99046
C          7.06059        0.97504       -1.29759
C          8.38970        0.60107       -1.73405
C          9.33653       -0.13255       -1.04921
C         10.59800       -0.24047       -1.72954
C         11.76284       -0.95310       -1.11470
C         10.56460        0.40168       -2.96427
C         11.60916        0.51937       -3.97301
C         11.86865        1.54014       -4.87242
C         11.17814        2.80009       -4.88486
N         10.63323        3.82128       -4.87407
C         12.91454        1.21430       -5.80035
C         13.27700        2.07162       -6.88835
N         13.52817        2.79112       -7.76554
C         13.52439        0.00311       -5.51943
C         14.68122       -0.62732       -6.13568
C         14.94566       -1.97870       -6.36051
C         14.06213       -3.15436       -6.07244
C         16.25442       -2.16404       -6.93101
C         16.92246       -0.98466       -7.14576
S         16.01539        0.35196       -6.62788
S         12.75502       -0.73495       -4.18310
S          9.00262        1.06068       -3.25855
S          6.48153        0.56501        0.26683
H          5.33676        4.05487        2.89246
H          4.17957        4.13716        1.70385
H          5.69924        3.57357        1.34964
H          3.76785        2.25959        3.16923
H          5.41504        1.68446        2.81960
H          3.10459        1.99480        0.79585
H          3.67617        0.45369        1.42251
H          4.05322        2.46090       -1.60670
H          6.22532        2.03745       -3.01000
H          9.16320       -0.56843       -0.07213
H         11.52939       -1.29189       -0.10070
H         12.62948       -0.28740       -1.05299
H         12.02370       -1.84459       -1.69197
H         13.04562       -2.87989       -5.79074
H         14.49279       -3.75324       -5.26246
H         13.97223       -3.78658       -6.96111
H         16.68118       -3.13016       -7.17591
H         17.90713       -0.84640       -7.57096
