 xtb: 6.5.1 (fef0646)
          01242310093D

 25 26  0     0  0            999 V2000
    4.0439   -1.3566   -0.8172 N   0  0  0  0  0  0  0  0  0  0  0  0
    4.3787    0.0225   -0.3638 C   0  0  0  0  0  0  0  0  0  0  0  0
    3.5212    0.4704    0.8184 C   0  0  0  0  0  0  0  0  0  0  0  0
    2.0788    0.5909    0.4751 C   0  0  0  0  0  0  0  0  0  0  0  0
    1.4759    1.6914   -0.0959 C   0  0  0  0  0  0  0  0  0  0  0  0
    0.1043    1.5419   -0.3137 C   0  0  0  0  0  0  0  0  0  0  0  0
   -0.3971    0.3070    0.0876 C   0  0  0  0  0  0  0  0  0  0  0  0
   -1.7395   -0.1131    0.0021 C   0  0  0  0  0  0  0  0  0  0  0  0
   -2.2488   -1.3419    0.4146 C   0  0  0  0  0  0  0  0  0  0  0  0
   -3.6242   -1.4788    0.2093 C   0  0  0  0  0  0  0  0  0  0  0  0
   -4.2089   -0.3761   -0.3608 C   0  0  0  0  0  0  0  0  0  0  0  0
   -3.0459    0.8426   -0.6449 S   0  0  0  0  0  0  0  0  0  0  0  0
    0.9131   -0.6483    0.7248 S   0  0  0  0  0  0  0  0  0  0  0  0
    3.0436   -1.4296   -1.0527 H   0  0  0  0  0  0  0  0  0  0  0  0
    4.2364   -2.0467   -0.0758 H   0  0  0  0  0  0  0  0  0  0  0  0
    4.5876   -1.6331   -1.6498 H   0  0  0  0  0  0  0  0  0  0  0  0
    4.2449    0.7207   -1.1989 H   0  0  0  0  0  0  0  0  0  0  0  0
    5.4444    0.0662   -0.1044 H   0  0  0  0  0  0  0  0  0  0  0  0
    3.8765    1.4307    1.2109 H   0  0  0  0  0  0  0  0  0  0  0  0
    3.6295   -0.2451    1.6409 H   0  0  0  0  0  0  0  0  0  0  0  0
    2.0189    2.5917   -0.3438 H   0  0  0  0  0  0  0  0  0  0  0  0
   -0.5187    2.3119   -0.7435 H   0  0  0  0  0  0  0  0  0  0  0  0
   -1.6321   -2.1103    0.8565 H   0  0  0  0  0  0  0  0  0  0  0  0
   -4.1765   -2.3701    0.4754 H   0  0  0  0  0  0  0  0  0  0  0  0
   -5.2520   -0.2759   -0.6017 H   0  0  0  0  0  0  0  0  0  0  0  0
  1  2  1  0  0  0  0
  2  3  1  0  0  0  0
  3  4  1  0  0  0  0
  4  5  2  0  0  0  0
  5  6  4  0  0  0  0
  6  7  4  0  0  0  0
  7  8  1  0  0  0  0
  8  9  4  0  0  0  0
  9 10  4  0  0  0  0
 10 11  2  0  0  0  0
  8 12  1  0  0  0  0
 11 12  1  0  0  0  0
  4 13  1  0  0  0  0
  7 13  1  0  0  0  0
  1 14  1  0  0  0  0
  1 15  1  0  0  0  0
  1 16  1  0  0  0  0
  2 17  1  0  0  0  0
  2 18  1  0  0  0  0
  3 19  1  0  0  0  0
  3 20  1  0  0  0  0
  5 21  1  0  0  0  0
  6 22  1  0  0  0  0
  9 23  1  0  0  0  0
 10 24  1  0  0  0  0
 11 25  1  0  0  0  0
M  CHG  1   1   1
M  END
