 xtb: 6.5.1 (fef0646)
          02032321593D

 22 21  0     0  0            999 V2000
    1.1159   -1.5687    1.1165 N   0  0  0  0  0  0  0  0  0  0  0  0
    0.0486   -1.7557    0.0814 C   0  0  0  0  0  0  0  0  0  0  0  0
    0.6590   -2.0149   -1.2908 C   0  0  0  0  0  0  0  0  0  0  0  0
   -0.8991   -0.5797    0.0520 C   0  0  0  0  0  0  0  0  0  0  0  0
   -0.4211    0.7149   -0.0777 C   0  0  0  0  0  0  0  0  0  0  0  0
   -1.2893    1.7875   -0.1196 C   0  0  0  0  0  0  0  0  0  0  0  0
   -2.6507    1.5781   -0.0346 C   0  0  0  0  0  0  0  0  0  0  0  0
   -3.1409    0.2940    0.0909 C   0  0  0  0  0  0  0  0  0  0  0  0
   -2.2708   -0.7773    0.1323 C   0  0  0  0  0  0  0  0  0  0  0  0
    3.0597    1.1301   -0.0314 Cl  0  0  0  0  0  0  0  0  0  0  0  0
    1.7270   -0.7784    0.8529 H   0  0  0  0  0  0  0  0  0  0  0  0
    1.7088   -2.4053    1.2032 H   0  0  0  0  0  0  0  0  0  0  0  0
    0.7085   -1.3592    2.0375 H   0  0  0  0  0  0  0  0  0  0  0  0
   -0.5385   -2.6415    0.3733 H   0  0  0  0  0  0  0  0  0  0  0  0
    1.3145   -2.8859   -1.2787 H   0  0  0  0  0  0  0  0  0  0  0  0
    1.2538   -1.1605   -1.6124 H   0  0  0  0  0  0  0  0  0  0  0  0
   -0.1119   -2.1807   -2.0443 H   0  0  0  0  0  0  0  0  0  0  0  0
    0.6410    0.8811   -0.1441 H   0  0  0  0  0  0  0  0  0  0  0  0
   -0.9030    2.7892   -0.2189 H   0  0  0  0  0  0  0  0  0  0  0  0
   -3.3295    2.4153   -0.0669 H   0  0  0  0  0  0  0  0  0  0  0  0
   -4.2042    0.1270    0.1552 H   0  0  0  0  0  0  0  0  0  0  0  0
   -2.6545   -1.7794    0.2257 H   0  0  0  0  0  0  0  0  0  0  0  0
  1  2  1  0  0  0  0
  2  3  1  0  0  0  0
  2  4  1  0  0  0  0
  4  5  4  0  0  0  0
  5  6  4  0  0  0  0
  6  7  4  0  0  0  0
  7  8  4  0  0  0  0
  4  9  4  0  0  0  0
  8  9  4  0  0  0  0
  1 11  1  0  0  0  0
  1 12  1  0  0  0  0
  1 13  1  0  0  0  0
  2 14  1  0  0  0  0
  3 15  1  0  0  0  0
  3 16  1  0  0  0  0
  3 17  1  0  0  0  0
  5 18  1  0  0  0  0
  6 19  1  0  0  0  0
  7 20  1  0  0  0  0
  8 21  1  0  0  0  0
  9 22  1  0  0  0  0
M  END
