23
2.481
N           -3.38824   1.21747  -0.53158
C           -2.21469   1.81955   0.15970
C           -0.96883   1.05686  -0.09405
C            0.22875   1.44068   0.34131
C            1.46627   0.68515   0.12542
C            1.45402  -0.69027  -0.10762
C            2.63094  -1.38392  -0.30477
C            3.84162  -0.71972  -0.27061
C            3.87368   0.64105  -0.03534
C            2.69844   1.33719   0.16270
Cl          -3.04523  -2.15593   0.26054
H           -4.27559   1.68823  -0.28991
H           -3.47389   0.21528  -0.27760
H           -3.27549   1.26105  -1.55685
H           -2.40056   1.86034   1.24012
H           -2.08491   2.86017  -0.16164
H           -1.05752   0.14206  -0.65485
H            0.30656   2.36760   0.88536
H            0.51490  -1.21830  -0.11533
H            2.60558  -2.44770  -0.48273
H            4.76073  -1.26326  -0.42464
H            4.81873   1.16059  -0.00644
H            2.72317   2.39928   0.34428
