37
1.86
N           -3.12734   1.41261   1.02614
C           -3.92493   0.44292   0.24055
C           -3.76617   0.75199  -1.24166
O           -2.41197   1.06253  -1.55682
C           -1.49403   0.04521  -1.33459
C           -0.14970   0.42526  -1.07914
C            0.23541   1.79003  -1.06694
C            1.51522   2.16113  -0.80284
C            0.82157  -0.56490  -0.80759
C            0.46583  -1.93430  -0.80637
C           -0.86407  -2.28176  -1.07988
C           -1.81071  -1.32270  -1.33571
C            1.46715  -2.90605  -0.53123
C            2.74862  -2.54209  -0.26886
C            3.13947  -1.17157  -0.25862
C            4.45023  -0.76860   0.00917
C            4.79146   0.56950   0.01069
C            3.84510   1.53985  -0.25193
C            2.51984   1.19001  -0.52597
C            2.16412  -0.18079  -0.53013
Cl          -2.90352   0.51938   4.35961
H           -3.51174   2.36646   0.93930
H           -2.16839   1.43905   0.64020
H           -3.07149   1.16901   2.03541
H           -4.97825   0.46024   0.54560
H           -3.56509  -0.57036   0.45361
H           -4.34620   1.64318  -1.50669
H           -4.11998  -0.05431  -1.89288
H           -0.51475   2.53180  -1.28675
H            1.78929   3.20303  -0.80295
H           -1.13640  -3.32436  -1.08781
H           -2.81754  -1.62682  -1.55909
H            1.18972  -3.94719  -0.53446
H            3.49396  -3.29226  -0.06284
H            5.19626  -1.51817   0.21549
H            5.80915   0.85988   0.21923
H            4.12146   2.58126  -0.24892
