40

N         12.86027        5.77820        0.04764
C         14.01086        4.94970        0.49099
C         13.67166        3.47800        0.36635
C         13.38560        3.10831       -1.08536
C         12.97580        1.63864       -1.25731
N         11.76564        1.45565       -0.45429
C         11.46865        0.43555        0.63242
C          9.86105        0.18436        0.54668
C          9.19614        0.42065        1.86914
C          9.89781       -0.17656        2.86581
C         11.03445        0.65014        3.19016
C         11.86892        0.89236        2.13657
C         10.54100        1.73873       -1.10348
C          9.45483        1.17100       -0.51161
C          8.15464        1.53739       -0.88481
C          7.97965        2.45634       -1.92244
C          9.07548        2.95245       -2.61757
C         10.36611        2.58174       -2.23191
Cl         0.95707       -0.01765       -0.06000
H         13.07088        6.78000        0.09567
H         12.02391        5.59497        0.62050
H         12.58860        5.58375       -0.92491
H         14.22368        5.22828        1.52682
H         14.85960        5.21707       -0.14412
H         12.80062        3.26725        0.99634
H         14.49894        2.86320        0.73740
H         14.23438        3.36960       -1.72373
H         12.55932        3.73474       -1.43389
H         13.79504        0.95857       -1.01284
H         12.79600        1.49061       -2.33737
H         12.00403       -0.49746        0.41869
H          9.65350       -0.85154        0.23423
H          8.98633        1.49008        2.04516
H         10.23019       -1.21791        2.83168
H         11.01840        0.90386        4.25143
H         12.83767        1.33817        2.30877
H          7.29399        1.16037       -0.35775
H          6.97144        2.78565       -2.20610
H          8.93584        3.62741       -3.45570
H         11.15952        2.98311       -2.80752
