 xtb: 6.5.1 (fef0646)
          01242310033D

 25 25  0     0  0            999 V2000
   -3.1341    0.5229   -1.0002 N   0  0  0  0  0  0  0  0  0  0  0  0
   -2.0200    1.4398   -1.3584 C   0  0  0  0  0  0  0  0  0  0  0  0
   -0.7101    0.9483   -0.8306 C   0  0  0  0  0  0  0  0  0  0  0  0
   -0.2553    1.3631    0.4344 C   0  0  0  0  0  0  0  0  0  0  0  0
    0.9143    0.8875    0.9527 C   0  0  0  0  0  0  0  0  0  0  0  0
    0.0293    0.0395   -1.5418 C   0  0  0  0  0  0  0  0  0  0  0  0
    1.2459   -0.4719   -1.0377 C   0  0  0  0  0  0  0  0  0  0  0  0
    1.6973   -0.0399    0.2311 C   0  0  0  0  0  0  0  0  0  0  0  0
    2.9132   -0.5530    0.7361 C   0  0  0  0  0  0  0  0  0  0  0  0
    3.6424   -1.4518    0.0123 C   0  0  0  0  0  0  0  0  0  0  0  0
    3.1953   -1.8800   -1.2434 C   0  0  0  0  0  0  0  0  0  0  0  0
    2.0249   -1.4039   -1.7597 C   0  0  0  0  0  0  0  0  0  0  0  0
   -3.0272    0.1325    2.4571 Cl  0  0  0  0  0  0  0  0  0  0  0  0
   -4.0525    0.8705   -1.3226 H   0  0  0  0  0  0  0  0  0  0  0  0
   -3.1798    0.3990    0.0290 H   0  0  0  0  0  0  0  0  0  0  0  0
   -2.9864   -0.4124   -1.4103 H   0  0  0  0  0  0  0  0  0  0  0  0
   -2.2202    2.4438   -0.9661 H   0  0  0  0  0  0  0  0  0  0  0  0
   -1.9605    1.5532   -2.4472 H   0  0  0  0  0  0  0  0  0  0  0  0
   -0.8512    2.0631    0.9971 H   0  0  0  0  0  0  0  0  0  0  0  0
    1.2524    1.2131    1.9228 H   0  0  0  0  0  0  0  0  0  0  0  0
   -0.3239   -0.2978   -2.5016 H   0  0  0  0  0  0  0  0  0  0  0  0
    3.2571   -0.2242    1.7029 H   0  0  0  0  0  0  0  0  0  0  0  0
    4.5692   -1.8366    0.4079 H   0  0  0  0  0  0  0  0  0  0  0  0
    3.7817   -2.5910   -1.8040 H   0  0  0  0  0  0  0  0  0  0  0  0
    1.6809   -1.7339   -2.7263 H   0  0  0  0  0  0  0  0  0  0  0  0
  1  2  1  0  0  0  0
  2  3  1  0  0  0  0
  3  4  4  0  0  0  0
  4  5  2  0  0  0  0
  3  6  2  0  0  0  0
  6  7  4  0  0  0  0
  5  8  4  0  0  0  0
  7  8  4  0  0  0  0
  8  9  4  0  0  0  0
  9 10  2  0  0  0  0
 10 11  4  0  0  0  0
  7 12  4  0  0  0  0
 11 12  2  0  0  0  0
  1 14  1  0  0  0  0
  1 15  1  0  0  0  0
  1 16  1  0  0  0  0
  2 17  1  0  0  0  0
  2 18  1  0  0  0  0
  4 19  1  0  0  0  0
  5 20  1  0  0  0  0
  6 21  1  0  0  0  0
  9 22  1  0  0  0  0
 10 23  1  0  0  0  0
 11 24  1  0  0  0  0
 12 25  1  0  0  0  0
M  END
