22
0.099
N            1.93956  -1.08161   1.38863
C            1.60826  -2.17464   0.43336
C            0.90197  -1.64735  -0.81275
C           -0.32865  -0.85463  -0.48787
C           -0.26468   0.52581  -0.35820
C           -1.38628   1.25427  -0.02049
C           -2.59390   0.61862   0.20310
F           -3.69473   1.33440   0.54077
C           -2.66173  -0.75754   0.08487
C           -1.54067  -1.48784  -0.25397
Cl           3.16843   1.58460  -0.50120
H            1.08115  -0.66626   1.78297
H            2.44720  -0.31758   0.90461
H            2.52165  -1.40736   2.17694
H            0.97325  -2.91314   0.93695
H            2.52387  -2.71063   0.15329
H            0.63570  -2.47174  -1.48515
H            1.59013  -1.01460  -1.38449
H            0.67896   1.02401  -0.51078
H           -1.34124   2.32523   0.07882
H           -3.60500  -1.24403   0.26503
H           -1.59840  -2.56054  -0.33665
