 xtb: 6.5.1 (fef0646)
          01242310033D

 18 16  0     0  0            999 V2000
    0.0607    0.5818   -0.0965 N   0  0  0  0  0  0  0  0  0  0  0  0
    0.6515   -0.7607    0.1529 C   0  0  0  0  0  0  0  0  0  0  0  0
    2.1852   -0.7458    0.2629 C   0  0  0  0  0  0  0  0  0  0  0  0
    2.8359   -0.2775   -1.0392 C   0  0  0  0  0  0  0  0  0  0  0  0
    2.6537    0.1013    1.4464 C   0  0  0  0  0  0  0  0  0  0  0  0
   -3.4177    0.3719   -0.2836 Cl  0  0  0  0  0  0  0  0  0  0  0  0
    0.4072    0.9891   -0.9802 H   0  0  0  0  0  0  0  0  0  0  0  0
    0.2938    1.2429    0.6598 H   0  0  0  0  0  0  0  0  0  0  0  0
   -0.9749    0.5406   -0.1610 H   0  0  0  0  0  0  0  0  0  0  0  0
    0.3485   -1.4423   -0.6511 H   0  0  0  0  0  0  0  0  0  0  0  0
    0.2226   -1.1776    1.0721 H   0  0  0  0  0  0  0  0  0  0  0  0
    2.5125   -1.7858    0.4454 H   0  0  0  0  0  0  0  0  0  0  0  0
    2.5935    0.7663   -1.2434 H   0  0  0  0  0  0  0  0  0  0  0  0
    2.4968   -0.8686   -1.8923 H   0  0  0  0  0  0  0  0  0  0  0  0
    3.9246   -0.3519   -0.9913 H   0  0  0  0  0  0  0  0  0  0  0  0
    2.4081    1.1532    1.2952 H   0  0  0  0  0  0  0  0  0  0  0  0
    3.7360    0.0392    1.5789 H   0  0  0  0  0  0  0  0  0  0  0  0
    2.1831   -0.2173    2.3789 H   0  0  0  0  0  0  0  0  0  0  0  0
  1  2  1  0  0  0  0
  2  3  1  0  0  0  0
  3  4  1  0  0  0  0
  3  5  1  0  0  0  0
  1  7  1  0  0  0  0
  1  8  1  0  0  0  0
  1  9  1  0  0  0  0
  2 10  1  0  0  0  0
  2 11  1  0  0  0  0
  3 12  1  0  0  0  0
  4 13  1  0  0  0  0
  4 14  1  0  0  0  0
  4 15  1  0  0  0  0
  5 16  1  0  0  0  0
  5 17  1  0  0  0  0
  5 18  1  0  0  0  0
M  END
