26
1.019
N           -2.28066  -0.94526   1.47869
C           -2.08539  -2.06619   0.51880
C           -1.41748  -1.60060  -0.77240
C           -0.11333  -0.90070  -0.52986
C            1.06532  -1.61995  -0.38643
C            2.25818  -0.98150  -0.12356
C            2.31242   0.40741   0.01288
O            3.47375   1.13540   0.27959
C            4.64514   0.35932   0.39099
C            1.11995   1.12113  -0.12293
C           -0.06867   0.47910  -0.38586
Cl          -3.40545   1.80696  -0.34897
H           -1.37218  -0.58880   1.81637
H           -2.83618  -1.22183   2.30430
H           -2.76017  -0.15079   1.01730
H           -3.05183  -2.53678   0.29865
H           -1.47647  -2.84529   0.99289
H           -2.08956  -0.92100  -1.30903
H           -1.25473  -2.44673  -1.45105
H            1.03685  -2.69341  -0.48067
H            3.15675  -1.56372  -0.01977
H            4.54904  -0.34329   1.21996
H            5.48580   1.02581   0.58896
H            4.82922  -0.17314  -0.54332
H            1.15289   2.19175  -0.01309
H           -0.98265   1.04425  -0.46960
