  25

 N          1.1013273040        0.3887964309        0.2571647751
 C          2.5747471606        0.3057970002        0.1893032589
 C          3.0553972836       -0.9698641958        0.8689837134
 C          4.5559745756       -1.1878756806        0.6453962217
 C          5.0193569006       -2.4379884584        1.3379013286
 C          4.7263703891       -3.6855137005        0.7991450986
 C          5.1239127850       -4.8435366797        1.4422196382
 C          5.8228827708       -4.7705612606        2.6360928771
 C          6.1185072062       -3.5335570397        3.1819564215
 C          5.7164814605       -2.3764485992        2.5371385472
 Cl        -0.0702966681       -2.0737461689       -1.1333046098
 H          0.7474288951        1.2207722727       -0.2201012840
 H          0.7816326768        0.3832750175        1.2286166378
 H          0.6814386743       -0.4520021349       -0.2156163597
 H          3.0131260757        1.1811621363        0.6702142015
 H          2.8704340614        0.2868400233       -0.8594834048
 H          2.5005676817       -1.8153138522        0.4580600714
 H          2.8609875262       -0.9277401619        1.9415435318
 H          5.1106701002       -0.3300516173        1.0277851609
 H          4.7482962169       -1.2750194269       -0.4254897063
 H          4.1812041630       -3.7495396118       -0.1322471139
 H          4.8892919728       -5.8063622132        1.0111626264
 H          6.1352085384       -5.6752509815        3.1366135035
 H          6.6635800316       -3.4712120484        4.1123425163
 H          5.9520522182       -1.4149390495        2.9694023487
