  22

 N          1.1026655224       -0.0732200415       -0.3156614148
 C          2.5607414643       -0.0495129875       -0.2204944540
 C          3.0106204317        1.1745881983        0.5836838255
 C          4.4916275844        1.1239763245        0.8237664682
 C          5.3791118150        1.7342595770       -0.0536418827
 C          6.7453859553        1.6580356655        0.1488478626
 C          7.2241186544        0.9585491772        1.2423569077
 Br         9.1064813231        0.8486695873        1.5315165691
 C          6.3616252879        0.3394137165        2.1305596664
 C          4.9990043756        0.4255717424        1.9133201611
 Cl         0.0417745154       -0.2381222700        2.4194844945
 H          0.7813493371       -0.8858560313       -0.8300976335
 H          0.7552804632        0.7636435581       -0.7732497607
 H          0.5213697089       -0.1562981038        1.1409150628
 H          3.0452018465       -0.0379670973       -1.2072286007
 H          2.8713939354       -0.9585002570        0.2998376213
 H          2.4755876913        1.1753843185        1.5331499052
 H          2.7496224065        2.0823720561        0.0365273873
 H          5.0019850886        2.2823637154       -0.9047431349
 H          7.4312800976        2.1364197277       -0.5331887441
 H          6.7510370180       -0.1998197690        2.9802324095
 H          4.3186554775       -0.0510108073        2.6029472844
