18
0.482
N           -2.62990  -0.65219  -0.61517
C           -2.31586   0.79282  -0.42317
C           -1.25521   1.03221   0.65222
C            0.09131   0.52431   0.27639
C            1.08843   1.24295  -0.37414
C            2.26082   0.51095  -0.59338
C            2.19339  -0.78750  -0.12386
S            0.65889  -1.07760   0.58214
H           -3.01698  -1.06565   0.24586
H           -1.78271  -1.18423  -0.86032
H           -3.32121  -0.79854  -1.36710
H           -3.24248   1.32535  -0.17085
H           -1.97591   1.21870  -1.37525
H           -1.56618   0.55026   1.58594
H           -1.17890   2.10156   0.88391
H            0.97161   2.27614  -0.66885
H            3.13783   0.92244  -1.07654
H            2.98076  -1.51879  -0.18249
