18
 xtb: 6.5.1 (fef0646)
N           -2.55490103952098        0.60983217414133        0.76641687223057
C           -2.29760013573179       -0.82528622026627        0.45416236436581
C           -1.28655380778460       -0.98681413988533       -0.68245762564531
C            0.05981754732287       -0.49620887159666       -0.29352629878871
C            0.97094052895685       -1.16112397764545        0.51515318435785
C            2.15632934203804       -0.45191877682604        0.73260151213068
C            2.18863444843564        0.77279809632357        0.09562737091177
S            0.72659982081365        1.03279227730822       -0.76041584395732
H           -3.12595450366856        0.69059064609901        1.65764710160986
H           -3.08793739312698        1.07383418344340        0.02358474103049
H           -1.66891029215053        1.10181639893264        0.92015554621061
H           -3.25691749138881       -1.30967342525755        0.17804480823849
H           -1.95005424772259       -1.34627498477596        1.34302433805164
H           -1.61806921935170       -0.43540937016604       -1.56068260458071
H           -1.20431995966500       -2.03186104829820       -0.98284773694946
H            0.78385981773120       -2.13028607512305        0.94327218946466
H            2.97919623914076       -0.82365665941660        1.32941058756467
H            3.00919470451102        1.47336326970041        0.10975655430275
