 xtb: 6.5.1 (fef0646)
          01242317073D

 18 18  0     0  0            999 V2000
   -2.5765    0.6012    0.7953 N   0  0  0  0  0  0  0  0  0  0  0  0
   -2.3155   -0.8257    0.4458 C   0  0  0  0  0  0  0  0  0  0  0  0
   -1.2823   -0.9819   -0.6704 C   0  0  0  0  0  0  0  0  0  0  0  0
    0.0646   -0.4907   -0.2857 C   0  0  0  0  0  0  0  0  0  0  0  0
    0.9772   -1.1543    0.5216 C   0  0  0  0  0  0  0  0  0  0  0  0
    2.1669   -0.4481    0.7243 C   0  0  0  0  0  0  0  0  0  0  0  0
    2.1982    0.7727    0.0799 C   0  0  0  0  0  0  0  0  0  0  0  0
    0.7363    1.0269   -0.7779 S   0  0  0  0  0  0  0  0  0  0  0  0
   -3.2424    0.6826    1.5713 H   0  0  0  0  0  0  0  0  0  0  0  0
   -2.9600    1.1086   -0.0094 H   0  0  0  0  0  0  0  0  0  0  0  0
   -1.7051    1.0668    1.0735 H   0  0  0  0  0  0  0  0  0  0  0  0
   -3.2613   -1.3020    0.1599 H   0  0  0  0  0  0  0  0  0  0  0  0
   -1.9696   -1.3559    1.3406 H   0  0  0  0  0  0  0  0  0  0  0  0
   -1.6156   -0.4352   -1.5586 H   0  0  0  0  0  0  0  0  0  0  0  0
   -1.2026   -2.0308   -0.9785 H   0  0  0  0  0  0  0  0  0  0  0  0
    0.7855   -2.1273    0.9473 H   0  0  0  0  0  0  0  0  0  0  0  0
    2.9833   -0.8221    1.3258 H   0  0  0  0  0  0  0  0  0  0  0  0
    3.0129    1.4723    0.1012 H   0  0  0  0  0  0  0  0  0  0  0  0
  1  2  1  0  0  0  0
  2  3  1  0  0  0  0
  3  4  1  0  0  0  0
  4  5  2  0  0  0  0
  5  6  4  0  0  0  0
  6  7  2  0  0  0  0
  4  8  1  0  0  0  0
  7  8  1  0  0  0  0
  1  9  1  0  0  0  0
  1 10  1  0  0  0  0
  1 11  1  0  0  0  0
  2 12  1  0  0  0  0
  2 13  1  0  0  0  0
  3 14  1  0  0  0  0
  3 15  1  0  0  0  0
  5 16  1  0  0  0  0
  6 17  1  0  0  0  0
  7 18  1  0  0  0  0
M  CHG  1   1   1
M  END
