 xtb: 6.5.1 (fef0646)
          01242314583D

 12 10  0     0  0            999 V2000
    1.0336    0.3579    0.2752 N   0  0  0  0  0  0  0  0  0  0  0  0
    2.4950    0.1674    0.2996 C   0  0  0  0  0  0  0  0  0  0  0  0
    3.1232    0.8815    1.4844 C   0  0  0  0  0  0  0  0  0  0  0  0
    2.7058    0.2805    2.6684 F   0  0  0  0  0  0  0  0  0  0  0  0
   -0.0769   -1.1491   -2.1023 Cl  0  0  0  0  0  0  0  0  0  0  0  0
    0.6172   -0.1692   -0.5398 H   0  0  0  0  0  0  0  0  0  0  0  0
    0.7848    1.3439    0.1619 H   0  0  0  0  0  0  0  0  0  0  0  0
    0.6084   -0.0053    1.1330 H   0  0  0  0  0  0  0  0  0  0  0  0
    2.9247    0.5544   -0.6228 H   0  0  0  0  0  0  0  0  0  0  0  0
    2.7048   -0.9008    0.3568 H   0  0  0  0  0  0  0  0  0  0  0  0
    2.8161    1.9268    1.5581 H   0  0  0  0  0  0  0  0  0  0  0  0
    4.2109    0.8013    1.4670 H   0  0  0  0  0  0  0  0  0  0  0  0
  1  2  1  0  0  0  0
  2  3  1  0  0  0  0
  3  4  1  0  0  0  0
  1  6  1  0  0  0  0
  1  7  1  0  0  0  0
  1  8  1  0  0  0  0
  2  9  1  0  0  0  0
  2 10  1  0  0  0  0
  3 11  1  0  0  0  0
  3 12  1  0  0  0  0
M  END
