 xtb: 6.5.1 (fef0646)
          01242317073D

 21 21  0     0  0            999 V2000
   -4.2365   -0.0680    0.1963 N   0  0  0  0  0  0  0  0  0  0  0  0
   -2.7723   -0.1745    0.4802 C   0  0  0  0  0  0  0  0  0  0  0  0
   -1.9030    0.2651   -0.6953 C   0  0  0  0  0  0  0  0  0  0  0  0
   -0.4336    0.1550   -0.4099 C   0  0  0  0  0  0  0  0  0  0  0  0
    0.2717    1.2332    0.1200 C   0  0  0  0  0  0  0  0  0  0  0  0
    1.6158    1.1254    0.4074 C   0  0  0  0  0  0  0  0  0  0  0  0
    2.2896   -0.0705    0.1766 C   0  0  0  0  0  0  0  0  0  0  0  0
    3.5803   -0.1759    0.4497 F   0  0  0  0  0  0  0  0  0  0  0  0
    1.5891   -1.1539   -0.3451 C   0  0  0  0  0  0  0  0  0  0  0  0
    0.2452   -1.0408   -0.6320 C   0  0  0  0  0  0  0  0  0  0  0  0
   -4.4909    0.8992   -0.0242 H   0  0  0  0  0  0  0  0  0  0  0  0
   -4.7933   -0.3686    1.0020 H   0  0  0  0  0  0  0  0  0  0  0  0
   -4.4925   -0.6536   -0.6041 H   0  0  0  0  0  0  0  0  0  0  0  0
   -2.5300   -1.2088    0.7515 H   0  0  0  0  0  0  0  0  0  0  0  0
   -2.5293    0.4273    1.3640 H   0  0  0  0  0  0  0  0  0  0  0  0
   -2.1436    1.2973   -0.9693 H   0  0  0  0  0  0  0  0  0  0  0  0
   -2.1454   -0.3310   -1.5810 H   0  0  0  0  0  0  0  0  0  0  0  0
   -0.2421    2.1623    0.3034 H   0  0  0  0  0  0  0  0  0  0  0  0
    2.1676    1.9571    0.8129 H   0  0  0  0  0  0  0  0  0  0  0  0
    2.1202   -2.0749   -0.5188 H   0  0  0  0  0  0  0  0  0  0  0  0
   -0.2889   -1.8846   -1.0366 H   0  0  0  0  0  0  0  0  0  0  0  0
  1  2  1  0  0  0  0
  2  3  1  0  0  0  0
  3  4  1  0  0  0  0
  4  5  4  0  0  0  0
  5  6  4  0  0  0  0
  6  7  4  0  0  0  0
  7  8  1  0  0  0  0
  7  9  4  0  0  0  0
  4 10  4  0  0  0  0
  9 10  4  0  0  0  0
  1 11  1  0  0  0  0
  1 12  1  0  0  0  0
  1 13  1  0  0  0  0
  2 14  1  0  0  0  0
  2 15  1  0  0  0  0
  3 16  1  0  0  0  0
  3 17  1  0  0  0  0
  5 18  1  0  0  0  0
  6 19  1  0  0  0  0
  9 20  1  0  0  0  0
 10 21  1  0  0  0  0
M  CHG  1   1   1
M  END
