27
0.705
N           -3.86928  -0.48007  -0.03994
C           -2.45625  -0.53927  -0.51693
C           -1.50551   0.25108   0.37521
C           -0.04634   0.29820  -0.12719
C            0.64082  -1.09093  -0.10716
C            2.09076  -1.01875  -0.61996
C            2.91862   0.00281   0.17863
C            2.24960   1.38772   0.17059
C            0.80147   1.31047   0.68483
H           -3.95632  -0.86008   0.91382
H           -4.50285  -1.02016  -0.64848
H           -4.21420   0.49072  -0.01800
H           -2.40547  -0.15766  -1.54350
H           -2.14040  -1.58704  -0.57451
H           -1.52316  -0.16227   1.38880
H           -1.88510   1.27375   0.47671
H           -0.06066   0.64431  -1.17236
H            0.06223  -1.81432  -0.69334
H            0.63310  -1.47349   0.91914
H            2.08859  -0.73590  -1.67936
H            2.56264  -2.00998  -0.58480
H            3.94187   0.06499  -0.21587
H            3.02637  -0.34415   1.21324
H            2.25297   1.78789  -0.85028
H            2.83349   2.10303   0.76547
H            0.32841   2.30004   0.66828
H            0.80182   1.00572   1.73694
