21
0.576
N           -0.65355  -1.28932  -0.91890
C            0.06358  -1.65363   0.33752
C            0.50062  -0.43200   1.14231
C            1.45961   0.49768   0.39494
C            2.79521  -0.15540   0.03524
C            3.75430   0.80830  -0.64840
Cl          -3.18462   0.96511  -0.04206
H           -1.44382  -0.65440  -0.71154
H           -1.03030  -2.11555  -1.40516
H           -0.03164  -0.79825  -1.57570
H            0.93137  -2.27839   0.09735
H           -0.58594  -2.29098   0.95123
H            0.97094  -0.75388   2.08011
H           -0.39253   0.12861   1.44583
H            1.65404   1.39425   0.99782
H            0.97993   0.87329  -0.51616
H            2.61899  -1.02548  -0.60942
H            3.25480  -0.56434   0.94447
H            4.70421   0.33240  -0.90209
H            3.97739   1.66431  -0.00887
H            3.32720   1.20116  -1.57302
