 xtb: 6.5.1 (fef0646)
          01232318363D

 23 22  0     0  0            999 V2000
    2.0472   -0.9235   -0.8022 N   0  0  0  0  0  0  0  0  0  0  0  0
    2.6824    0.2011   -0.1067 C   0  0  0  0  0  0  0  0  0  0  0  0
    3.1243   -0.2378    1.2532 C   0  0  0  0  0  0  0  0  0  0  0  0
    4.3483   -0.0427    1.7370 C   0  0  0  0  0  0  0  0  0  0  0  0
    4.8363   -0.4357    3.0521 C   0  0  0  0  0  0  0  0  0  0  0  0
    4.0659   -1.1609    3.9628 C   0  0  0  0  0  0  0  0  0  0  0  0
    4.5769   -1.5089    5.1978 C   0  0  0  0  0  0  0  0  0  0  0  0
    5.8653   -1.1427    5.5532 C   0  0  0  0  0  0  0  0  0  0  0  0
    6.6428   -0.4253    4.6598 C   0  0  0  0  0  0  0  0  0  0  0  0
    6.1337   -0.0776    3.4234 C   0  0  0  0  0  0  0  0  0  0  0  0
   -0.1738   -1.9559    0.8180 Cl  0  0  0  0  0  0  0  0  0  0  0  0
    1.6839   -0.6415   -1.7059 H   0  0  0  0  0  0  0  0  0  0  0  0
    0.8657   -1.4681    0.0661 H   0  0  0  0  0  0  0  0  0  0  0  0
    2.7088   -1.6817   -0.9340 H   0  0  0  0  0  0  0  0  0  0  0  0
    1.9227    0.9833   -0.0041 H   0  0  0  0  0  0  0  0  0  0  0  0
    3.5307    0.6158   -0.6693 H   0  0  0  0  0  0  0  0  0  0  0  0
    2.3581   -0.7383    1.8238 H   0  0  0  0  0  0  0  0  0  0  0  0
    5.0780    0.4714    1.1203 H   0  0  0  0  0  0  0  0  0  0  0  0
    3.0621   -1.4580    3.7029 H   0  0  0  0  0  0  0  0  0  0  0  0
    3.9667   -2.0704    5.8903 H   0  0  0  0  0  0  0  0  0  0  0  0
    6.2606   -1.4161    6.5203 H   0  0  0  0  0  0  0  0  0  0  0  0
    7.6488   -0.1367    4.9283 H   0  0  0  0  0  0  0  0  0  0  0  0
    6.7467    0.4830    2.7311 H   0  0  0  0  0  0  0  0  0  0  0  0
  1  2  1  0  0  0  0
  2  3  1  0  0  0  0
  3  4  2  0  0  0  0
  4  5  1  0  0  0  0
  5  6  4  0  0  0  0
  6  7  4  0  0  0  0
  7  8  4  0  0  0  0
  8  9  4  0  0  0  0
  5 10  4  0  0  0  0
  9 10  4  0  0  0  0
  1 12  1  0  0  0  0
 11 13  1  0  0  0  0
  1 14  1  0  0  0  0
  2 15  1  0  0  0  0
  2 16  1  0  0  0  0
  3 17  1  0  0  0  0
  4 18  1  0  0  0  0
  6 19  1  0  0  0  0
  7 20  1  0  0  0  0
  8 21  1  0  0  0  0
  9 22  1  0  0  0  0
 10 23  1  0  0  0  0
M  END
