 xtb: 6.5.1 (fef0646)
          01242310093D

 19 18  0     0  0            999 V2000
   -1.2635   -1.4390    1.2973 N   0  0  0  0  0  0  0  0  0  0  0  0
   -0.5452   -2.2482    0.2747 C   0  0  0  0  0  0  0  0  0  0  0  0
   -0.0343   -1.3858   -0.8764 C   0  0  0  0  0  0  0  0  0  0  0  0
    0.7976   -0.2438   -0.4093 C   0  0  0  0  0  0  0  0  0  0  0  0
    0.3340    1.0036   -0.1423 C   0  0  0  0  0  0  0  0  0  0  0  0
    1.3434    1.9029    0.3118 C   0  0  0  0  0  0  0  0  0  0  0  0
    2.5665    1.3323    0.3882 C   0  0  0  0  0  0  0  0  0  0  0  0
    2.5061   -0.3249   -0.0963 S   0  0  0  0  0  0  0  0  0  0  0  0
   -3.2318    0.9224   -0.3654 Cl  0  0  0  0  0  0  0  0  0  0  0  0
   -0.6089   -0.7993    1.7831 H   0  0  0  0  0  0  0  0  0  0  0  0
   -1.7242   -2.0224    2.0148 H   0  0  0  0  0  0  0  0  0  0  0  0
   -1.9825   -0.8450    0.8519 H   0  0  0  0  0  0  0  0  0  0  0  0
   -1.2054   -3.0384   -0.1052 H   0  0  0  0  0  0  0  0  0  0  0  0
    0.2954   -2.7665    0.7521 H   0  0  0  0  0  0  0  0  0  0  0  0
   -0.8830   -0.9934   -1.4492 H   0  0  0  0  0  0  0  0  0  0  0  0
    0.5482   -1.9890   -1.5836 H   0  0  0  0  0  0  0  0  0  0  0  0
   -0.7059    1.2749   -0.2502 H   0  0  0  0  0  0  0  0  0  0  0  0
    1.1459    2.9340    0.5692 H   0  0  0  0  0  0  0  0  0  0  0  0
    3.4663    1.8267    0.7056 H   0  0  0  0  0  0  0  0  0  0  0  0
  1  2  1  0  0  0  0
  2  3  1  0  0  0  0
  3  4  1  0  0  0  0
  4  5  2  0  0  0  0
  5  6  4  0  0  0  0
  6  7  2  0  0  0  0
  4  8  1  0  0  0  0
  7  8  1  0  0  0  0
  1 10  1  0  0  0  0
  1 11  1  0  0  0  0
  1 12  1  0  0  0  0
  2 13  1  0  0  0  0
  2 14  1  0  0  0  0
  3 15  1  0  0  0  0
  3 16  1  0  0  0  0
  5 17  1  0  0  0  0
  6 18  1  0  0  0  0
  7 19  1  0  0  0  0
M  END
