36
2.848
N           -6.03387   0.53160   0.79121
C           -4.63545   0.01067   0.80469
C           -4.09074  -0.25159  -0.59166
O           -2.77646  -0.80755  -0.57427
C           -1.75990   0.05149  -0.34855
C           -0.43777  -0.51956  -0.29737
C           -0.24200  -1.89757  -0.47710
C            1.00487  -2.45083  -0.43082
C            0.67902   0.31167  -0.06277
C            0.50976   1.70694   0.12222
C           -0.79800   2.24540   0.06350
C           -1.88116   1.45736  -0.16213
C            1.64670   2.50896   0.35524
C            2.89653   1.96837   0.40444
C            3.10207   0.57647   0.22293
C            4.37319  -0.00879   0.26734
C            4.53165  -1.36697   0.08573
C            3.44477  -2.18164  -0.14364
C            2.14850  -1.64923  -0.19815
C            1.97800  -0.25458  -0.01263
H           -6.66420  -0.13585   0.33538
H           -6.08847   1.41593   0.27536
H           -6.38127   0.69724   1.74180
H           -4.59054  -0.91774   1.38478
H           -3.98394   0.71437   1.33212
H           -4.09564   0.64396  -1.22126
H           -4.71815  -0.98733  -1.10778
H           -1.10830  -2.51202  -0.65463
H            1.13168  -3.51028  -0.57199
H           -0.92416   3.30584   0.20010
H           -2.85265   1.91338  -0.20535
H            1.51315   3.56815   0.49497
H            3.75036   2.59911   0.58296
H            5.23165   0.61581   0.44566
H            5.51957  -1.79658   0.12387
H            3.58263  -3.24000  -0.28370
