49
 xtb: 6.5.1 (fef0646)
N            8.50508577827285        1.82880343871084       -0.10180885837182
C            8.73620392525518        0.57822444921872        0.67705520443848
C            8.09595976517316       -0.65202447685723        0.02937123792221
C            6.60588969831889       -0.65615805192892        0.07820478093504
C            5.81603325917779       -1.75637562535187        0.24587985901563
C            4.42615041796373       -1.48116520512276        0.22087106233296
C            4.12338821174307       -0.15516097871720        0.03311969484270
C            2.80652728543012        0.40406554807175       -0.02901628041172
C            2.49043532066729        1.73817578208548       -0.13168380116741
C            1.10601476506501        2.02641781619375       -0.15875639536508
C            0.62629387014230        3.43306639793694       -0.25452157150841
C            0.30854946843541        0.88649790519482       -0.08269528708717
C           -1.12699278395830        0.72494568970796       -0.08648037446571
C           -2.03746896579421        1.78211771952575       -0.20809911514527
C           -3.40834366591559        1.59862360922926       -0.20743378182404
C           -4.00503013248036        0.34017920482383       -0.08497387362456
C           -5.44661171872062        0.14830010750013       -0.10827828248973
C           -6.43258305361501        1.00104153386669        0.35444741322047
C           -6.19618006472253        2.29883997231752        1.04611171197687
C           -7.74687072619764        0.49962554866755        0.13221091688138
C           -7.78433629191017       -0.71547640311901       -0.46341330408807
S           -6.19578105445128       -1.28101586290331       -0.76721070006084
C           -3.12716721409585       -0.77744443848327        0.02579121591975
N           -3.47288473554186       -2.05660422767846        0.16125514525480
S           -2.11171120867915       -2.95278945780615        0.26187497477761
N           -1.02615614217989       -1.73568814215476        0.15513206605590
C           -1.68797968435513       -0.58547610737694        0.03014515380980
S            1.34041006098260       -0.50707161549577        0.02184111112517
S            5.60543639665442        0.73835164606962       -0.17389760807628
H            8.92923709039311        1.74418261611947       -1.05048480821122
H            8.90709812881109        2.66027239124329        0.34248837981527
H            7.49842870864596        1.98907618564503       -0.24511536927061
H            8.31718634457062        0.72172725157612        1.69224626978806
H            9.80606306646252        0.43816712941479        0.81848960232199
H            8.45922731065192       -1.55948643455607        0.54219415700175
H            8.42937593831989       -0.73231837806253       -0.99695921677772
H            6.21699167901085       -2.75993456274766        0.29281000297967
H            3.66644350119204       -2.24975504343965        0.25181297609600
H            3.24781831504445        2.50327907331707       -0.20613891604341
H            0.00680299338477        3.70604521989182        0.56135788360078
H            0.06218765283165        3.57681888058775       -1.21286766176002
H            1.46726388903649        4.12515019524837       -0.31626336997012
H           -1.66543570388281        2.78353688009830       -0.31718177942837
H           -4.04543099629599        2.45443206696615       -0.35036852911563
H           -7.01213496188066        2.52413660848569        1.73583826878930
H           -6.12655752404151        3.11673504685413        0.33421934366483
H           -5.27689361025548        2.26774336347843        1.63798070550906
H           -8.63214072767409        1.04189239138642        0.43200958904746
H           -8.67394060359902       -1.26436368384570       -0.71020415145520
