21
 xtb: 6.5.1 (fef0646)
N           -4.08037232513744        1.00415699951047       -1.12416955873204
C           -4.19492715448339       -0.32426096218331       -0.45353369570613
C           -3.35685191401564       -0.43163391142935        0.82143209804717
C           -1.88031058784484       -0.29848338925396        0.58265415315789
C           -1.18130647703506       -1.30495064120280       -0.07533059254585
C            0.17731768397342       -1.18604433856139       -0.30376576364474
C            0.84676622287554       -0.06370680234890        0.13211224223392
Br           2.69870211850034        0.07606979882473       -0.17170660649252
C            0.17460046443405        0.94375866877835        0.78829585247367
C           -1.18633446407089        0.82917649039869        1.00795084870363
H           -4.37844972811439        1.78966416224673       -0.40169625156765
H           -4.63141160658498        1.16064924620923       -1.91986455866610
H           -3.08627315614642        1.27409576362376       -1.31508915851016
H           -3.88407348349765       -1.04260351443921       -1.21263546684941
H           -5.24821787381614       -0.49922034129515       -0.26180760280618
H           -3.55316914113556       -1.44652303585646        1.25774464236099
H           -3.67836395725599        0.26724652277030        1.54931266605440
H           -1.67184230440637       -2.25364492431523       -0.32511332717036
H            0.75718102907968       -2.01829290082734       -0.72097040221707
H            0.67981703475573        1.84810994746267        1.02658281321358
H           -1.74998600098647        1.62839794562047        1.42325014793410
