26
0.0
N            1.36847  -1.47657  -1.23106
C            0.78386  -2.28532  -0.12287
C            0.21590  -1.41283   0.99526
C           -0.83107  -0.44876   0.51798
C           -0.47802   0.77194   0.12538
C           -1.43001   1.80515  -0.39252
C           -2.90052   1.46441  -0.09863
C           -3.18352  -0.02049  -0.36109
C           -2.26120  -0.91958   0.47929
Cl           3.27098   1.12138   0.16972
H            0.63580  -0.94238  -1.71921
H            1.85271  -2.05869  -1.93007
H            2.04539  -0.78757  -0.85988
H            1.54664  -2.96395   0.27919
H           -0.00346  -2.93403  -0.52411
H            1.02807  -0.85109   1.47085
H           -0.20738  -2.03769   1.79080
H            0.56617   1.03624   0.18280
H           -1.29123   1.90522  -1.47687
H           -1.17523   2.78749   0.02799
H           -3.57440   2.09862  -0.69107
H           -3.12673   1.69648   0.94941
H           -3.03045  -0.23520  -1.42597
H           -4.23907  -0.25431  -0.16496
H           -2.28682  -1.95002   0.10292
H           -2.63796  -0.97492   1.50782
