  25

 N          1.2531693170       -0.2161923181       -0.2374034147
 C          2.6927975198       -0.0962995722        0.0755268719
 C          3.0969628082        1.3228281690        0.4811928306
 C          2.6309993675        1.6611182329        1.8987208880
 C          3.1241760791        3.0488112086        2.3006458829
 C          2.6199613898        4.0984413205        1.3150453491
 C          3.0795239925        3.7596232342       -0.0998717740
 C          2.5701425955        2.3758058734       -0.4960392368
 Cl        -1.0191958301        1.0724712542        1.3678974978
 H          0.9714341439       -1.1965887542       -0.3016787997
 H          1.0354523689        0.2510809264       -1.1196054121
 H          0.6307633703        0.2309547914        0.4772196254
 H          3.2599930669       -0.3969569761       -0.8067053949
 H          2.9305699423       -0.7728934681        0.8963646340
 H          4.1914002403        1.3608131291        0.4714952130
 H          3.0137928235        0.9228438139        2.6061331591
 H          1.5409020266        1.6438759502        1.9503189365
 H          4.2169667336        3.0609751339        2.3133677829
 H          2.7751663154        3.2887175097        3.3074183915
 H          2.9810479017        5.0881867605        1.6032045473
 H          1.5273162518        4.1198548668        1.3459312446
 H          4.1710058347        3.7799824958       -0.1387128748
 H          2.7043404672        4.5097401874       -0.7989319843
 H          2.8932006110        2.1478755812       -1.5132811877
 H          1.4795506627        2.3992006497       -0.4581827756
