40
 xtb: 6.5.1 (fef0646)
N           -4.88562665641828        1.39215417071878       -0.74152992261381
C           -3.61293800548123        0.64754953942084       -0.47595371720303
C           -2.41573583126842        1.58984171904888       -0.41100642685848
C           -1.11512224554028        0.91937958669367        0.03681579693153
C           -0.57609995960705       -0.10103056302227       -0.95814054622764
N            0.70208425011160       -0.67880619087060       -0.52479330052434
C            0.74216973483993       -1.88221538159524        0.34694772877050
C            2.21225909237871       -1.86391445652623        0.93104826908672
C            3.03607361019943       -3.07006614646420        0.58761627861489
C            2.57102681712937       -4.09703815002962       -0.12214823306942
C            1.21334487330327       -4.13155113609092       -0.61196673265654
C            0.36467617996150       -3.13001023599522       -0.39809715953279
C            1.89787279255780        0.05631305568889       -0.46344393992130
C            2.81535879745003       -0.58798976022375        0.37863395376054
C            4.05485796051852       -0.03062305457815        0.61088716910001
C            4.38045457559002        1.17020337286483        0.00094103209910
C            3.47338261538742        1.80969549557605       -0.83113672381967
C            2.22919437480864        1.26316811587411       -1.06931323286527
Cl          -5.36957408127055        3.63781411010311        1.45266162550451
H           -5.67792256300471        0.67043582592373       -0.85646703506970
H           -4.81070334350722        1.78092794286397       -1.74349127299473
H           -5.08153679357449        2.04856467364154       -0.12301230895128
H           -3.40348791431421       -0.16764569434681       -1.23675833070979
H           -3.70881259910838        0.08801145549675        0.46141893886739
H           -2.68122108196902        2.39647109905384        0.26378658127843
H           -2.27522745768118        2.05225520098839       -1.39313778720845
H           -1.26618439086333        0.42942516111481        1.00442767680704
H           -0.34984776019681        1.67862784308391        0.21426377455325
H           -0.42746307567135        0.35795681850279       -1.94191283642163
H           -1.28591424841680       -0.91628333324739       -1.11174262958379
H            0.02314907442281       -1.72010519335975        1.16299208293175
H            2.16307902813319       -1.77834728188953        2.02687075931610
H            4.06454464119673       -3.07855490378600        0.91585566281084
H            3.21866137346846       -4.93041050176253       -0.34638191117887
H            0.88931126733942       -4.99870117936651       -1.16446983855438
H           -0.63671177943639       -3.19174264180643       -0.78906571218710
H            4.75427089481254       -0.52935384340327        1.26301080782126
H            5.35050703094073        1.61122298415395        0.17634528678237
H            3.74533485494066        2.74447912791728       -1.29558327228062
H            1.52173800606385        1.75417657842664       -1.71121182377121
