22
1.564
N            1.46034   1.67184  -0.51741
C            0.37369   1.72067   0.51258
C           -0.33038   3.07229   0.50929
C           -0.59548   0.57807   0.32103
C           -1.29707   0.43406  -0.86600
C           -2.17218  -0.61916  -1.04508
C           -2.35654  -1.54346  -0.03693
C           -1.66456  -1.41191   1.14992
C           -0.78987  -0.35840   1.32712
Cl           2.54295  -1.64954  -0.46025
H            2.19733   2.36547  -0.32984
H            1.07781   1.86163  -1.45275
H            1.88922   0.73067  -0.54034
H            0.84964   1.58262   1.49710
H           -0.80791   3.25539  -0.45262
H            0.37084   3.88795   0.68757
H           -1.10577   3.11848   1.27481
H           -1.15403   1.15366  -1.65408
H           -2.71119  -0.71964  -1.97353
H           -3.03930  -2.36632  -0.17626
H           -1.80637  -2.13281   1.93907
H           -0.24871  -0.25822   2.25298
