22
0.0
N            1.11700   1.56782   1.11807
C            0.04872   1.75529   0.08401
C            0.65803   2.01534  -1.28846
C           -0.89912   0.57944   0.05418
C           -2.27085   0.77792   0.12607
C           -3.14135  -0.29314   0.08338
C           -2.65110  -1.57780  -0.03488
C           -1.28938  -1.78826  -0.11168
C           -0.42088  -0.71599  -0.06900
Cl           3.05979  -1.12965  -0.03565
H            0.71052   1.35661   2.03902
H            1.70903   2.40481   1.20579
H            1.72878   0.77867   0.85293
H           -0.53812   2.64092   0.37713
H           -0.11327   2.18360  -2.04092
H            1.25084   1.16025  -1.61206
H            1.31522   2.88512  -1.27590
H           -2.65475   1.78053   0.21367
H           -4.20495  -0.12545   0.14123
H           -3.33022  -2.41469  -0.06829
H           -0.90322  -2.79060  -0.20545
H            0.64129  -0.88283  -0.13036
