17
0.131
N           -1.92184  -1.06981   0.24634
C           -2.05823   0.35361  -0.17790
C           -0.90143   1.24870   0.28899
C            0.41801   1.08479  -0.49163
C            1.22275  -0.12777  -0.11280
O            2.42700   0.09100   0.44076
O            0.78251  -1.23381  -0.30285
H           -2.57931  -1.69729  -0.23985
H           -2.05872  -1.18333   1.26083
H           -0.95460  -1.36306   0.02508
H           -3.01869   0.73377   0.19849
H           -2.13358   0.39791  -1.27268
H           -0.71088   1.07010   1.35422
H           -1.22064   2.29880   0.22556
H            1.06493   1.95706  -0.33085
H            0.22120   1.05248  -1.56845
H            2.86736  -0.75748   0.61421
