 xtb: 6.5.1 (fef0646)
          01242317093D

 17 16  0     0  0            999 V2000
   -2.3403    0.2570    0.1228 N   0  0  0  0  0  0  0  0  0  0  0  0
   -0.9428   -0.1671    0.4415 C   0  0  0  0  0  0  0  0  0  0  0  0
    0.0074   -0.0042   -0.7406 C   0  0  0  0  0  0  0  0  0  0  0  0
    1.4355   -0.4944   -0.4656 C   0  0  0  0  0  0  0  0  0  0  0  0
    2.1796    0.3322    0.5758 C   0  0  0  0  0  0  0  0  0  0  0  0
   -2.3617    1.2406   -0.1592 H   0  0  0  0  0  0  0  0  0  0  0  0
   -2.9563    0.1448    0.9329 H   0  0  0  0  0  0  0  0  0  0  0  0
   -2.7205   -0.3016   -0.6461 H   0  0  0  0  0  0  0  0  0  0  0  0
   -0.9503   -1.2130    0.7693 H   0  0  0  0  0  0  0  0  0  0  0  0
   -0.5806    0.4112    1.2984 H   0  0  0  0  0  0  0  0  0  0  0  0
    0.0345    1.0482   -1.0419 H   0  0  0  0  0  0  0  0  0  0  0  0
   -0.4089   -0.5387   -1.6022 H   0  0  0  0  0  0  0  0  0  0  0  0
    2.0076   -0.4939   -1.4027 H   0  0  0  0  0  0  0  0  0  0  0  0
    1.4021   -1.5448   -0.1519 H   0  0  0  0  0  0  0  0  0  0  0  0
    3.2053   -0.0160    0.7114 H   0  0  0  0  0  0  0  0  0  0  0  0
    1.6924    0.2845    1.5500 H   0  0  0  0  0  0  0  0  0  0  0  0
    2.2264    1.3825    0.2853 H   0  0  0  0  0  0  0  0  0  0  0  0
  1  2  1  0  0  0  0
  2  3  1  0  0  0  0
  3  4  1  0  0  0  0
  4  5  1  0  0  0  0
  1  6  1  0  0  0  0
  1  7  1  0  0  0  0
  1  8  1  0  0  0  0
  2  9  1  0  0  0  0
  2 10  1  0  0  0  0
  3 11  1  0  0  0  0
  3 12  1  0  0  0  0
  4 13  1  0  0  0  0
  4 14  1  0  0  0  0
  5 15  1  0  0  0  0
  5 16  1  0  0  0  0
  5 17  1  0  0  0  0
M  CHG  1   1   1
M  END
