36
0.0
N           -4.41960   0.74642  -1.64310
C           -4.53651   1.81964  -0.61462
C           -3.94619   1.39443   0.72815
C           -2.51090   0.97187   0.62502
C           -1.48978   1.90991   0.65999
C           -0.17243   1.52602   0.52997
C            0.16893   0.18440   0.35245
C            1.54940  -0.26321   0.21466
C            2.61783   0.53790   0.09342
C            3.99816   0.08761  -0.04111
C            4.99290   1.00888  -0.37516
C            6.30739   0.61657  -0.50944
C            6.65990  -0.70368  -0.31023
C            5.69250  -1.63014   0.02592
C            4.37648  -1.24154   0.16035
C           -0.86504  -0.75184   0.31219
C           -2.17981  -0.36242   0.44185
Cl          -5.17387  -2.29004  -0.03003
H           -4.92271   0.97609  -2.51189
H           -4.79361  -0.14517  -1.27608
H           -3.43280   0.57835  -1.88260
H           -5.58975   2.10099  -0.49255
H           -4.02883   2.72262  -0.97368
H           -4.53143   0.56482   1.13948
H           -4.03318   2.20418   1.46215
H           -1.73932   2.94986   0.78949
H            0.60074   2.27269   0.57394
H            1.69986  -1.32775   0.19282
H            2.46473   1.60209   0.07324
H            4.72040   2.03894  -0.53228
H            7.06166   1.34141  -0.77065
H            7.68826  -1.01007  -0.41526
H            5.96800  -2.66027   0.18573
H            3.63565  -1.97151   0.43643
H           -0.62419  -1.79226   0.17171
H           -2.96906  -1.09413   0.39009
