36
 xtb: 6.5.1 (fef0646)
N           -4.41399299412439        0.78776706939535       -1.65832945913218
C           -4.53163138308329        1.84194202048039       -0.61166468775839
C           -3.94816688187456        1.39288315155655        0.72661446294974
C           -2.51289650073549        0.97070129506611        0.62156430877553
C           -1.49174758967765        1.90804218014397        0.67449389735366
C           -0.17457825416996        1.52693639674954        0.53609984558505
C            0.16740243763061        0.18904237254159        0.33043587372138
C            1.54719753963256       -0.25513133581728        0.17440013424695
C            2.62329649286350        0.54842182041616        0.13806532311412
C            4.00041922340362        0.09325588803467       -0.01681121163970
C            4.99301548471684        1.00538098115677       -0.38133574403671
C            6.30231273754040        0.60324892890686       -0.53798734081537
C            6.65133996216900       -0.71611998895951       -0.32632385199612
C            5.68639467797431       -1.63206031648928        0.04576673529287
C            4.37485392464842       -1.23442851322186        0.19949927898944
C           -0.86675991794714       -0.74640181294972        0.27342914222170
C           -2.18160835542849       -0.36018137583340        0.41378557150941
Cl          -5.16335764069893       -2.34209231956489        0.00317343494325
H           -4.91939619010213        0.99206848438679       -2.51580882768497
H           -4.79416152422602       -0.13458685142059       -1.28478478138853
H           -3.43110856879150        0.58902743865083       -1.88583401477759
H           -5.58819544606171        2.10801457202214       -0.49173989909187
H           -4.02601290127134        2.73018030770757       -0.96807405016342
H           -4.53271777640845        0.56263504021328        1.13449468729155
H           -4.03423717927315        2.20030846245475        1.46547478627167
H           -1.73990036499074        2.94864275161613        0.79912767289329
H            0.59966985735734        2.27323872822307        0.57816967627984
H            1.69765861895694       -1.32512045413509        0.15204048541677
H            2.46991538838868        1.60611151431634        0.11361305649163
H            4.72097931820205        2.03757735371355       -0.53711751905881
H            7.05985700303077        1.33510008093319       -0.78663321412632
H            7.68469253878542       -1.01575297688852       -0.42460338869601
H            5.96579029487349       -2.66031672509741        0.19562351789981
H            3.63543604210489       -1.96593893215511        0.45800988830928
H           -0.62476846945771       -1.78987954156202        0.15438816788441
H           -2.96944966689207       -1.09343419084752        0.37871315493584
