18
2.678
N           -3.63169  -0.19569  -0.03175
C           -2.20633   0.24387   0.04689
C           -1.21331  -0.90194  -0.13279
C            0.21122  -0.47883  -0.06034
C            1.30283  -1.33427  -0.11401
C            2.53771  -0.68358  -0.02734
C            2.42979   0.68734   0.09465
S            0.78009   1.15016   0.09926
H           -3.83571  -0.88819   0.69491
H           -3.82816  -0.62393  -0.94143
H           -4.27248   0.59471   0.09316
H           -2.02907   0.73373   1.01114
H           -2.01977   1.01071  -0.71341
H           -1.38878  -1.39113  -1.09630
H           -1.39581  -1.66677   0.62871
H            1.20265  -2.40418  -0.21507
H            3.48497  -1.20344  -0.05382
H            3.24944   1.37676   0.17537
