49
0.773
N           -8.59268  -1.33626   0.26307
C           -8.72449  -0.12640  -0.60071
C           -8.05524   1.11379  -0.00261
C           -6.56666   1.05465  -0.00037
C           -5.72587   2.11892  -0.12250
C           -4.35169   1.78160  -0.07680
C           -4.11039   0.44190   0.08477
C           -2.82611  -0.17992   0.16247
C           -2.58336  -1.52323   0.32420
C           -1.22028  -1.88792   0.35722
C           -0.82298  -3.30858   0.56388
C           -0.35849  -0.80712   0.18761
C            1.07854  -0.74796   0.09956
C            1.89490  -1.87930   0.00787
C            3.27097  -1.80147  -0.07737
C            3.96408  -0.59060  -0.07262
C            5.41184  -0.58413  -0.16652
C            6.31709   0.31508   0.36265
C            5.97083   1.47558   1.22801
C            7.66385   0.00661   0.02586
C            7.80840  -1.11475  -0.71751
S            6.28043  -1.83315  -1.02382
C            3.17979   0.60033  -0.03145
N            3.61844   1.85539  -0.13020
S            2.33420   2.85488  -0.06477
N            1.16546   1.72473   0.05605
C            1.74021   0.52110   0.05538
S           -1.30706   0.64669   0.07548
S           -5.63272  -0.39449   0.18060
H           -9.01013  -2.16703  -0.17348
H           -9.04609  -1.18837   1.17232
H           -7.60142  -1.53248   0.43968
H           -9.78933   0.06522  -0.77983
H           -8.28858  -0.33228  -1.58492
H           -8.40347   1.25698   1.02500
H           -8.36841   2.00950  -0.55072
H           -6.07939   3.13135  -0.24143
H           -3.55898   2.50843  -0.16072
H           -3.38103  -2.24232   0.41884
H           -0.06628  -3.39588   1.34324
H           -0.44654  -3.74926  -0.35905
H           -1.67778  -3.90593   0.88181
H            1.44325  -2.85143  -0.02808
H            3.84571  -2.70873  -0.14465
H            6.78067   1.70527   1.92008
H            5.07723   1.26806   1.81672
H            5.77768   2.36114   0.62330
H            8.49498   0.61575   0.34690
H            8.73929  -1.51668  -1.06942
