49
 xtb: 6.5.1 (fef0646)
N           -8.61499553005364       -1.32711356581101        0.29970367789458
C           -8.69855267556055       -0.14790379585100       -0.61618319445814
C           -8.05681682688836        1.10853944658801       -0.02115225840775
C           -6.56735590231524        1.05588100737914        0.00159403962166
C           -5.72724788781358        2.12277101522123       -0.10022934066323
C           -4.35297901819146        1.78541937333547       -0.05556070615335
C           -4.11114286438498        0.44351696861328        0.08628259765520
C           -2.82648930359261       -0.17772319526896        0.16317115642246
C           -2.58256683128825       -1.51824004052468        0.34649781275785
C           -1.21908815171165       -1.88172887373299        0.37939788353857
C           -0.81868768071214       -3.29783329454465        0.61108795129661
C           -0.35884378511667       -0.80347472953070        0.18700316468304
C            1.07794348847935       -0.74593533093146        0.09317739672701
C            1.89133625717322       -1.87880835459621       -0.00445056380471
C            3.26765950507286       -1.80364353725751       -0.09022016609750
C            3.96244043830380       -0.59398414369245       -0.07973808005389
C            5.41060977328559       -0.58810660608354       -0.16907608340758
C            6.31273333875030        0.30223660924038        0.37979541363542
C            5.95864403151124        1.44811041542738        1.26158830134222
C            7.66111401089292        0.00031445061359        0.04353414758677
C            7.80898498480002       -1.10661714743863       -0.72100458465033
S            6.28390961450905       -1.81123168560449       -1.06269500015392
C            3.18110574277996        0.59861815046550       -0.03547074157084
N            3.62325439935679        1.85280493088677       -0.13088311685271
S            2.34417621537378        2.85476306971479       -0.06469349704483
N            1.16938532627940        1.72712470248365        0.05281758466933
C            1.74144407680230        0.52215958495540        0.05038493162817
S           -1.30903946500914        0.64833976275277        0.03676138260171
S           -5.63270506817668       -0.39869601170237        0.14373161428404
H           -8.96053857970413       -2.18093772325365       -0.18540739620556
H           -9.11376417614187       -1.19677892597343        1.15313496162155
H           -7.61152785874153       -1.49570616554794        0.51153112244519
H           -9.77909274901706        0.05651560645772       -0.80375658478461
H           -8.26465994543116       -0.34719098355368       -1.58015128129799
H           -8.40897371912093        1.25822547833479        1.01750959469047
H           -8.36802391232403        2.00554233414474       -0.56051268235453
H           -6.07989149462130        3.13294222261948       -0.23075844490229
H           -3.55940271736446        2.51005054840578       -0.15074751449025
H           -3.38061833384795       -2.24041873988307        0.43035306802426
H           -0.06060655352694       -3.38787264214382        1.35310052023685
H           -0.45062648026766       -3.75224059771914       -0.34466140313242
H           -1.67492481539380       -3.90064746451706        0.90396999402023
H            1.44132053730960       -2.85085988166605       -0.03339091224485
H            3.84430216434341       -2.70954295589557       -0.14977802390652
H            6.77599146293151        1.69539762029046        1.93175502231671
H            5.07309821969475        1.25659152561823        1.82432966182108
H            5.77388047320064        2.35548418750013        0.63646525239122
H            8.49375908412781        0.61233948382826        0.35606098963450
H            8.73982889000750       -1.51186756472965       -1.07233110415934
