18
 xtb: 6.5.1 (fef0646)
N           -0.65358621826030        1.07059769886838       -0.88684874873439
C           -0.12058268522527        1.64307840696954        0.38154002827057
C            0.20881077697123        0.56096383925613        1.41252675375914
C            0.91970440085036       -0.65530749608775        0.81826749549859
C            2.12151049950769       -0.27681170611098       -0.00426965140007
O            2.00050055237057       -0.43710566096778       -1.34543836199932
O            3.11030217312474        0.15967069231560        0.53769816266644
Cl          -3.10219961086507       -0.85413575922494       -0.22451798684059
H           -0.83828292678060        1.86330847359832       -1.58274671077856
H           -1.42011027155496        0.52866309704122       -0.75161593910358
H            0.15231575076330        0.53798182348718       -1.31871817840711
H           -0.79617912707325        2.39382587233074        0.78945099600665
H            0.83264441028768        2.23969281760486        0.17678117174786
H           -0.71690984275832        0.25002241230318        1.87783964555648
H            0.83107858419867        0.98309736850966        2.21145768342806
H            0.23740900480553       -1.19967446792861        0.15503913554154
H            1.22246723281590       -1.34738173806166        1.58978755048913
H            2.87388050370557       -0.16554677010754       -1.75181221617967
