43
 xtb: 6.5.1 (fef0646)
N            5.80334022032014        1.05447716540784        0.00854934117835
C            5.45382556755091        0.60513552749467       -1.36134195085109
C            4.08764088996356       -0.06524645735708       -1.37198284491087
O            3.07377084279229        0.82807081224384       -0.92105992196506
C            1.81128706975104        0.27274162497686       -0.81149601130605
C            1.49705318986307       -1.05084614190826       -1.10009483457910
C            0.21493817981739       -1.53704207981110       -0.95145109696968
C           -0.83675541602037       -0.73718290639013       -0.51330690928201
C           -0.56829956383800        0.63064576738943       -0.22242132878958
C           -1.60304739764778        1.50872072927599        0.21404565237339
C           -1.27716450907364        2.82641915082758        0.50050127678413
C            0.01901908355977        3.30236495642647        0.36054323361370
C            1.01597615102527        2.47190678413166       -0.07061278015780
C            0.75131292098715        1.12988253540007       -0.36749577174864
C           -2.18866284648152       -1.25547673130846       -0.34739658287575
C           -2.50439706316327       -2.58629740884870       -0.58361965286419
C           -3.79974274210985       -3.06818419642333       -0.43342461379086
C           -4.80894217122523       -2.23410623919742       -0.04735078698467
C           -4.55100464282624       -0.87330931628530        0.21427101282338
C           -5.58210992939595        0.00052914022354        0.61447995445953
C           -5.31702585681543        1.31605088748130        0.86135777535890
C           -4.02404347902525        1.81167547108690        0.73044119986958
C           -2.96756061851326        0.99997916036669        0.34625080006587
C           -3.22984143483647       -0.37376248853144        0.07106210947954
Cl           5.60767470277897       -1.99846819035210        2.03941666784232
H            6.72339742858947        1.49158101208522        0.08900800569275
H            5.82638536322705        0.20511891787388        0.67384896052964
H            5.08685269404662        1.66012962352221        0.39689787795097
H            6.22605589076242       -0.09378457887144       -1.72488533247795
H            5.45084895588223        1.45435088658701       -2.00421587459963
H            4.09019653037028       -0.94716623303488       -0.68909977176985
H            3.82670135952062       -0.42144311575501       -2.36339838854974
H            2.26707057209836       -1.72547798491165       -1.43257715309939
H            0.03033111596822       -2.57497650024290       -1.18032720244353
H           -2.03919435110288        3.51116141577372        0.81571128004714
H            0.23570219429684        4.33801626094220        0.55268790605180
H            2.01959363773243        2.83633733751914       -0.20848908924172
H           -1.75064663770575       -3.26486034409887       -0.93163219137179
H           -4.02253595566266       -4.09679158344437       -0.66886524557600
H           -5.81862825624879       -2.60242099757431        0.05510441230752
H           -6.57957167430111       -0.38462654781212        0.74319921751309
H           -6.10255708511755        1.96795263465740        1.21353102290366
H           -3.84400217986553        2.84448932674590        0.97345392522228
