 xtb: 6.5.1 (fef0646)
          01242317143D

 43 46  0     0  0            999 V2000
    5.8081    1.0049    0.0526 N   0  0  0  0  0  0  0  0  0  0  0  0
    5.4601    0.5777   -1.3265 C   0  0  0  0  0  0  0  0  0  0  0  0
    4.0900   -0.0838   -1.3494 C   0  0  0  0  0  0  0  0  0  0  0  0
    3.0761    0.8133   -0.9092 O   0  0  0  0  0  0  0  0  0  0  0  0
    1.8115    0.2634   -0.8057 C   0  0  0  0  0  0  0  0  0  0  0  0
    1.4962   -1.0614   -1.0877 C   0  0  0  0  0  0  0  0  0  0  0  0
    0.2119   -1.5437   -0.9459 C   0  0  0  0  0  0  0  0  0  0  0  0
   -0.8406   -0.7395   -0.5179 C   0  0  0  0  0  0  0  0  0  0  0  0
   -0.5698    0.6280   -0.2274 C   0  0  0  0  0  0  0  0  0  0  0  0
   -1.6035    1.5082    0.2072 C   0  0  0  0  0  0  0  0  0  0  0  0
   -1.2794    2.8304    0.4739 C   0  0  0  0  0  0  0  0  0  0  0  0
    0.0156    3.3065    0.3243 C   0  0  0  0  0  0  0  0  0  0  0  0
    1.0141    2.4708   -0.0927 C   0  0  0  0  0  0  0  0  0  0  0  0
    0.7504    1.1253   -0.3736 C   0  0  0  0  0  0  0  0  0  0  0  0
   -2.1956   -1.2528   -0.3633 C   0  0  0  0  0  0  0  0  0  0  0  0
   -2.5187   -2.5770   -0.6242 C   0  0  0  0  0  0  0  0  0  0  0  0
   -3.8150   -3.0566   -0.4750 C   0  0  0  0  0  0  0  0  0  0  0  0
   -4.8175   -2.2272   -0.0631 C   0  0  0  0  0  0  0  0  0  0  0  0
   -4.5532   -0.8717    0.2183 C   0  0  0  0  0  0  0  0  0  0  0  0
   -5.5779   -0.0023    0.6431 C   0  0  0  0  0  0  0  0  0  0  0  0
   -5.3063    1.3075    0.9113 C   0  0  0  0  0  0  0  0  0  0  0  0
   -4.0146    1.8035    0.7704 C   0  0  0  0  0  0  0  0  0  0  0  0
   -2.9653    0.9973    0.3571 C   0  0  0  0  0  0  0  0  0  0  0  0
   -3.2322   -0.3732    0.0705 C   0  0  0  0  0  0  0  0  0  0  0  0
    5.6216   -1.9077    1.9984 Cl  0  0  0  0  0  0  0  0  0  0  0  0
    6.7257    1.4758    0.1034 H   0  0  0  0  0  0  0  0  0  0  0  0
    5.8251    0.1891    0.6834 H   0  0  0  0  0  0  0  0  0  0  0  0
    5.0895    1.6472    0.4104 H   0  0  0  0  0  0  0  0  0  0  0  0
    6.2269   -0.1021   -1.7160 H   0  0  0  0  0  0  0  0  0  0  0  0
    5.4551    1.4484   -1.9915 H   0  0  0  0  0  0  0  0  0  0  0  0
    4.0880   -0.9519   -0.6818 H   0  0  0  0  0  0  0  0  0  0  0  0
    3.8296   -0.4273   -2.3573 H   0  0  0  0  0  0  0  0  0  0  0  0
    2.2671   -1.7297   -1.4262 H   0  0  0  0  0  0  0  0  0  0  0  0
    0.0293   -2.5772   -1.1771 H   0  0  0  0  0  0  0  0  0  0  0  0
   -2.0402    3.5136    0.8047 H   0  0  0  0  0  0  0  0  0  0  0  0
    0.2342    4.3404    0.5372 H   0  0  0  0  0  0  0  0  0  0  0  0
    2.0191    2.8357   -0.2159 H   0  0  0  0  0  0  0  0  0  0  0  0
   -1.7564   -3.2611   -0.9494 H   0  0  0  0  0  0  0  0  0  0  0  0
   -4.0286   -4.0919   -0.6867 H   0  0  0  0  0  0  0  0  0  0  0  0
   -5.8211   -2.6002    0.0516 H   0  0  0  0  0  0  0  0  0  0  0  0
   -6.5783   -0.3853    0.7526 H   0  0  0  0  0  0  0  0  0  0  0  0
   -6.0978    1.9642    1.2348 H   0  0  0  0  0  0  0  0  0  0  0  0
   -3.8397    2.8407    0.9904 H   0  0  0  0  0  0  0  0  0  0  0  0
  1  2  1  0  0  0  0
  2  3  1  0  0  0  0
  3  4  1  0  0  0  0
  4  5  1  0  0  0  0
  5  6  4  0  0  0  0
  6  7  4  0  0  0  0
  7  8  4  0  0  0  0
  8  9  4  0  0  0  0
  9 10  4  0  0  0  0
 10 11  4  0  0  0  0
 11 12  4  0  0  0  0
 12 13  2  0  0  0  0
  5 14  4  0  0  0  0
  9 14  4  0  0  0  0
 13 14  4  0  0  0  0
  8 15  1  0  0  0  0
 15 16  4  0  0  0  0
 16 17  4  0  0  0  0
 17 18  2  0  0  0  0
 18 19  4  0  0  0  0
 19 20  4  0  0  0  0
 20 21  2  0  0  0  0
 21 22  4  0  0  0  0
 10 23  1  0  0  0  0
 22 23  4  0  0  0  0
 15 24  4  0  0  0  0
 19 24  4  0  0  0  0
 23 24  4  0  0  0  0
  1 26  1  0  0  0  0
  1 27  1  0  0  0  0
  1 28  1  0  0  0  0
  2 29  1  0  0  0  0
  2 30  1  0  0  0  0
  3 31  1  0  0  0  0
  3 32  1  0  0  0  0
  6 33  1  0  0  0  0
  7 34  1  0  0  0  0
 11 35  1  0  0  0  0
 12 36  1  0  0  0  0
 13 37  1  0  0  0  0
 16 38  1  0  0  0  0
 17 39  1  0  0  0  0
 18 40  1  0  0  0  0
 20 41  1  0  0  0  0
 21 42  1  0  0  0  0
 22 43  1  0  0  0  0
M  END
