39
 xtb: 6.5.1 (fef0646)
N           -7.59473156479422       -2.12485947959189        0.08599495254164
C           -8.00783557858020       -0.87770057429911       -0.62086044520618
C           -7.55731631487508        0.39755186233758        0.09744717340774
C           -6.08759782849595        0.63246046941043        0.04637224263552
C           -5.47342184927775        1.85118231475669       -0.04588679510142
C           -4.06475409910867        1.79062237950983       -0.04777974849263
C           -3.55746779217284        0.51174992055484        0.04431966985869
C           -2.18331536874317        0.15256296382127        0.06445725481925
C           -1.68256479396109       -1.13964151955726        0.12031301704386
C           -0.29362979256009       -1.21184888543706        0.10956388856404
C            0.33705113669318        0.02352268843810        0.04762704474689
C            1.73384722837454        0.24125952226568        0.02314398450122
C            2.36532214498894        1.47714733416018       -0.00504539581405
C            3.75420081630423        1.40396307122795       -0.02204010487134
C            4.25381240000406        0.11034018675817       -0.01083396883951
C            5.62741049610554       -0.25136364848663       -0.03630038183296
C            6.12696823895639       -1.53583928658557       -0.08937322984376
C            7.53371631273280       -1.59670668842700       -0.09878579930273
C            8.13179152138457       -0.37405860925204       -0.05078001769181
S            6.95841316808386        0.88307532407087        0.05058468220284
S            2.93498609215881       -1.02001546458993        0.02174592366293
S           -0.86371913015431        1.28221099235322       -0.00874936449035
S           -4.88521674798697       -0.61030346279863        0.17685227784885
H           -8.02263398171946       -2.16453573217061        1.02802878212176
H           -6.57892460807763       -2.14502399095298        0.21801006550969
H           -7.87238418453104       -2.97045118581297       -0.42077816363910
H           -9.08724698612794       -0.88383447362973       -0.75390808104089
H           -7.57455705093440       -0.88709870717207       -1.63188852916089
H           -7.88167527138920        0.35614709464934        1.14492225766576
H           -8.06216201660070        1.26683726763908       -0.33484272093637
H           -6.02204636758510        2.78162230481838       -0.00632727652147
H           -3.43279357758615        2.66583080687656       -0.02645381336484
H           -2.32331365513716       -2.00745335381359        0.11839430267794
H            0.25290270285279       -2.14106118500393        0.09752328770763
H            1.81818219485990        2.40606552905682       -0.03536961915160
H            4.39421215650558        2.27111703315990       -0.06018237664121
H            5.49259273340276       -2.40662504354254       -0.00902832073910
H            8.08322105400609       -2.52538879200132       -0.02819097891324
H            9.19032871175016       -0.19849329645562       -0.04738462386101
