 xtb: 6.5.1 (fef0646)
          01242317063D

 39 42  0     0  0            999 V2000
   -7.5974   -2.1254    0.0979 N   0  0  0  0  0  0  0  0  0  0  0  0
   -7.9949   -0.8798   -0.6215 C   0  0  0  0  0  0  0  0  0  0  0  0
   -7.5577    0.3968    0.1016 C   0  0  0  0  0  0  0  0  0  0  0  0
   -6.0875    0.6334    0.0705 C   0  0  0  0  0  0  0  0  0  0  0  0
   -5.4731    1.8535    0.0429 C   0  0  0  0  0  0  0  0  0  0  0  0
   -4.0646    1.7928    0.0310 C   0  0  0  0  0  0  0  0  0  0  0  0
   -3.5579    0.5125    0.0522 C   0  0  0  0  0  0  0  0  0  0  0  0
   -2.1839    0.1528    0.0477 C   0  0  0  0  0  0  0  0  0  0  0  0
   -1.6835   -1.1402    0.0729 C   0  0  0  0  0  0  0  0  0  0  0  0
   -0.2946   -1.2125    0.0615 C   0  0  0  0  0  0  0  0  0  0  0  0
    0.3365    0.0234    0.0268 C   0  0  0  0  0  0  0  0  0  0  0  0
    1.7333    0.2412    0.0083 C   0  0  0  0  0  0  0  0  0  0  0  0
    2.3648    1.4768   -0.0275 C   0  0  0  0  0  0  0  0  0  0  0  0
    3.7537    1.4037   -0.0391 C   0  0  0  0  0  0  0  0  0  0  0  0
    4.2534    0.1105   -0.0127 C   0  0  0  0  0  0  0  0  0  0  0  0
    5.6271   -0.2510   -0.0170 C   0  0  0  0  0  0  0  0  0  0  0  0
    6.1270   -1.5337    0.0095 C   0  0  0  0  0  0  0  0  0  0  0  0
    7.5337   -1.5951   -0.0021 C   0  0  0  0  0  0  0  0  0  0  0  0
    8.1314   -0.3746   -0.0374 C   0  0  0  0  0  0  0  0  0  0  0  0
    6.9573    0.8795   -0.0571 S   0  0  0  0  0  0  0  0  0  0  0  0
    2.9344   -1.0195    0.0272 S   0  0  0  0  0  0  0  0  0  0  0  0
   -0.8641    1.2834    0.0094 S   0  0  0  0  0  0  0  0  0  0  0  0
   -4.8866   -0.6112    0.0848 S   0  0  0  0  0  0  0  0  0  0  0  0
   -8.0344   -2.1673    1.0259 H   0  0  0  0  0  0  0  0  0  0  0  0
   -6.5812   -2.1422    0.2332 H   0  0  0  0  0  0  0  0  0  0  0  0
   -7.8642   -2.9707   -0.4219 H   0  0  0  0  0  0  0  0  0  0  0  0
   -9.0827   -0.8845   -0.7605 H   0  0  0  0  0  0  0  0  0  0  0  0
   -7.5649   -0.8885   -1.6295 H   0  0  0  0  0  0  0  0  0  0  0  0
   -7.8859    0.3564    1.1448 H   0  0  0  0  0  0  0  0  0  0  0  0
   -8.0610    1.2663   -0.3357 H   0  0  0  0  0  0  0  0  0  0  0  0
   -6.0219    2.7825    0.0346 H   0  0  0  0  0  0  0  0  0  0  0  0
   -3.4326    2.6667    0.0091 H   0  0  0  0  0  0  0  0  0  0  0  0
   -2.3237   -2.0077    0.0989 H   0  0  0  0  0  0  0  0  0  0  0  0
    0.2525   -2.1414    0.0778 H   0  0  0  0  0  0  0  0  0  0  0  0
    1.8180    2.4059   -0.0447 H   0  0  0  0  0  0  0  0  0  0  0  0
    4.3941    2.2710   -0.0664 H   0  0  0  0  0  0  0  0  0  0  0  0
    5.4927   -2.4055    0.0365 H   0  0  0  0  0  0  0  0  0  0  0  0
    8.0833   -2.5246    0.0156 H   0  0  0  0  0  0  0  0  0  0  0  0
    9.1902   -0.1989   -0.0512 H   0  0  0  0  0  0  0  0  0  0  0  0
  1  2  1  0  0  0  0
  2  3  1  0  0  0  0
  3  4  1  0  0  0  0
  4  5  2  0  0  0  0
  5  6  4  0  0  0  0
  6  7  4  0  0  0  0
  7  8  1  0  0  0  0
  8  9  4  0  0  0  0
  9 10  4  0  0  0  0
 10 11  4  0  0  0  0
 11 12  4  0  0  0  0
 12 13  4  0  0  0  0
 13 14  4  0  0  0  0
 14 15  4  0  0  0  0
 15 16  1  0  0  0  0
 16 17  4  0  0  0  0
 17 18  4  0  0  0  0
 18 19  2  0  0  0  0
 16 20  1  0  0  0  0
 19 20  1  0  0  0  0
 12 21  1  0  0  0  0
 15 21  1  0  0  0  0
  8 22  1  0  0  0  0
 11 22  1  0  0  0  0
  4 23  1  0  0  0  0
  7 23  1  0  0  0  0
  1 24  1  0  0  0  0
  1 25  1  0  0  0  0
  1 26  1  0  0  0  0
  2 27  1  0  0  0  0
  2 28  1  0  0  0  0
  3 29  1  0  0  0  0
  3 30  1  0  0  0  0
  5 31  1  0  0  0  0
  6 32  1  0  0  0  0
  9 33  1  0  0  0  0
 10 34  1  0  0  0  0
 13 35  1  0  0  0  0
 14 36  1  0  0  0  0
 17 37  1  0  0  0  0
 18 38  1  0  0  0  0
 19 39  1  0  0  0  0
M  CHG  1   1   1
M  END
