 xtb: 6.5.1 (fef0646)
          01242314573D

 42 40  0     0  0            999 V2000
    2.8411   -2.1329   -2.1649 N   0  0  0  0  0  0  0  0  0  0  0  0
    4.3069   -1.9492   -2.1636 C   0  0  0  0  0  0  0  0  0  0  0  0
    4.7285   -1.0250   -1.0285 C   0  0  0  0  0  0  0  0  0  0  0  0
    4.4243   -1.5629    0.3728 C   0  0  0  0  0  0  0  0  0  0  0  0
    5.0287   -2.9325    0.6923 C   0  0  0  0  0  0  0  0  0  0  0  0
    6.5550   -2.9499    0.6287 C   0  0  0  0  0  0  0  0  0  0  0  0
    7.1190   -4.3004    1.0655 C   0  0  0  0  0  0  0  0  0  0  0  0
    8.6443   -4.3374    1.0041 C   0  0  0  0  0  0  0  0  0  0  0  0
    9.1963   -5.6966    1.4275 C   0  0  0  0  0  0  0  0  0  0  0  0
   10.7218   -5.7430    1.3843 C   0  0  0  0  0  0  0  0  0  0  0  0
   11.2612   -7.1115    1.7940 C   0  0  0  0  0  0  0  0  0  0  0  0
   12.7869   -7.1649    1.7678 C   0  0  0  0  0  0  0  0  0  0  0  0
   13.3122   -8.5390    2.1672 C   0  0  0  0  0  0  0  0  0  0  0  0
    1.3709    0.5522   -2.2019 Cl  0  0  0  0  0  0  0  0  0  0  0  0
    2.5308   -2.6742   -2.9739 H   0  0  0  0  0  0  0  0  0  0  0  0
    2.3584   -1.1994   -2.1975 H   0  0  0  0  0  0  0  0  0  0  0  0
    2.5386   -2.5915   -1.3031 H   0  0  0  0  0  0  0  0  0  0  0  0
    4.5981   -1.4950   -3.1098 H   0  0  0  0  0  0  0  0  0  0  0  0
    4.7917   -2.9208   -2.0704 H   0  0  0  0  0  0  0  0  0  0  0  0
    4.2026   -0.0760   -1.1498 H   0  0  0  0  0  0  0  0  0  0  0  0
    5.7951   -0.8250   -1.1189 H   0  0  0  0  0  0  0  0  0  0  0  0
    3.3436   -1.6013    0.5221 H   0  0  0  0  0  0  0  0  0  0  0  0
    4.8079   -0.8389    1.0948 H   0  0  0  0  0  0  0  0  0  0  0  0
    4.6372   -3.6965    0.0202 H   0  0  0  0  0  0  0  0  0  0  0  0
    4.7212   -3.2085    1.7039 H   0  0  0  0  0  0  0  0  0  0  0  0
    6.9537   -2.1665    1.2773 H   0  0  0  0  0  0  0  0  0  0  0  0
    6.8908   -2.7407   -0.3877 H   0  0  0  0  0  0  0  0  0  0  0  0
    6.7176   -5.0870    0.4225 H   0  0  0  0  0  0  0  0  0  0  0  0
    6.7972   -4.5152    2.0874 H   0  0  0  0  0  0  0  0  0  0  0  0
    9.0527   -3.5625    1.6572 H   0  0  0  0  0  0  0  0  0  0  0  0
    8.9732   -4.1166   -0.0139 H   0  0  0  0  0  0  0  0  0  0  0  0
    8.7955   -6.4699    0.7680 H   0  0  0  0  0  0  0  0  0  0  0  0
    8.8595   -5.9224    2.4421 H   0  0  0  0  0  0  0  0  0  0  0  0
   11.1266   -4.9800    2.0535 H   0  0  0  0  0  0  0  0  0  0  0  0
   11.0634   -5.5085    0.3733 H   0  0  0  0  0  0  0  0  0  0  0  0
   10.8639   -7.8724    1.1181 H   0  0  0  0  0  0  0  0  0  0  0  0
   10.9110   -7.3502    2.8011 H   0  0  0  0  0  0  0  0  0  0  0  0
   13.1856   -6.4113    2.4507 H   0  0  0  0  0  0  0  0  0  0  0  0
   13.1392   -6.9197    0.7633 H   0  0  0  0  0  0  0  0  0  0  0  0
   12.9836   -8.7943    3.1722 H   0  0  0  0  0  0  0  0  0  0  0  0
   14.3990   -8.5549    2.1463 H   0  0  0  0  0  0  0  0  0  0  0  0
   12.9436   -9.3005    1.4836 H   0  0  0  0  0  0  0  0  0  0  0  0
  1  2  1  0  0  0  0
  2  3  1  0  0  0  0
  3  4  1  0  0  0  0
  4  5  1  0  0  0  0
  5  6  1  0  0  0  0
  6  7  1  0  0  0  0
  7  8  1  0  0  0  0
  8  9  1  0  0  0  0
  9 10  1  0  0  0  0
 10 11  1  0  0  0  0
 11 12  1  0  0  0  0
 12 13  1  0  0  0  0
  1 15  1  0  0  0  0
  1 16  1  0  0  0  0
  1 17  1  0  0  0  0
  2 18  1  0  0  0  0
  2 19  1  0  0  0  0
  3 20  1  0  0  0  0
  3 21  1  0  0  0  0
  4 22  1  0  0  0  0
  4 23  1  0  0  0  0
  5 24  1  0  0  0  0
  5 25  1  0  0  0  0
  6 26  1  0  0  0  0
  6 27  1  0  0  0  0
  7 28  1  0  0  0  0
  7 29  1  0  0  0  0
  8 30  1  0  0  0  0
  8 31  1  0  0  0  0
  9 32  1  0  0  0  0
  9 33  1  0  0  0  0
 10 34  1  0  0  0  0
 10 35  1  0  0  0  0
 11 36  1  0  0  0  0
 11 37  1  0  0  0  0
 12 38  1  0  0  0  0
 12 39  1  0  0  0  0
 13 40  1  0  0  0  0
 13 41  1  0  0  0  0
 13 42  1  0  0  0  0
M  END
