 xtb: 6.5.1 (fef0646)
          01242310103D

 27 27  0     0  0            999 V2000
   -3.1451    0.9893    0.0324 N   0  0  0  0  0  0  0  0  0  0  0  0
   -2.7077   -0.3958   -0.3094 C   0  0  0  0  0  0  0  0  0  0  0  0
   -1.4693   -0.8791    0.4529 C   0  0  0  0  0  0  0  0  0  0  0  0
   -0.1042   -0.4404   -0.1325 C   0  0  0  0  0  0  0  0  0  0  0  0
    1.0325   -1.3927    0.3264 C   0  0  0  0  0  0  0  0  0  0  0  0
    2.3917   -1.0023   -0.2799 C   0  0  0  0  0  0  0  0  0  0  0  0
    2.7535    0.4536    0.0580 C   0  0  0  0  0  0  0  0  0  0  0  0
    1.6392    1.4170   -0.3836 C   0  0  0  0  0  0  0  0  0  0  0  0
    0.2787    1.0192    0.2175 C   0  0  0  0  0  0  0  0  0  0  0  0
   -2.4764    1.7012   -0.2911 H   0  0  0  0  0  0  0  0  0  0  0  0
   -3.2600    1.1029    1.0503 H   0  0  0  0  0  0  0  0  0  0  0  0
   -4.0523    1.2152   -0.4034 H   0  0  0  0  0  0  0  0  0  0  0  0
   -2.5385   -0.4740   -1.3896 H   0  0  0  0  0  0  0  0  0  0  0  0
   -3.5499   -1.0702   -0.1015 H   0  0  0  0  0  0  0  0  0  0  0  0
   -1.4837   -1.9757    0.4888 H   0  0  0  0  0  0  0  0  0  0  0  0
   -1.5324   -0.5624    1.4988 H   0  0  0  0  0  0  0  0  0  0  0  0
   -0.1674   -0.5148   -1.2292 H   0  0  0  0  0  0  0  0  0  0  0  0
    0.7811   -2.4313    0.0780 H   0  0  0  0  0  0  0  0  0  0  0  0
    1.0964   -1.3625    1.4196 H   0  0  0  0  0  0  0  0  0  0  0  0
    2.3539   -1.1251   -1.3689 H   0  0  0  0  0  0  0  0  0  0  0  0
    3.1794   -1.6869    0.0630 H   0  0  0  0  0  0  0  0  0  0  0  0
    3.7112    0.7315   -0.4026 H   0  0  0  0  0  0  0  0  0  0  0  0
    2.9118    0.5491    1.1389 H   0  0  0  0  0  0  0  0  0  0  0  0
    1.5687    1.4130   -1.4779 H   0  0  0  0  0  0  0  0  0  0  0  0
    1.8937    2.4506   -0.1128 H   0  0  0  0  0  0  0  0  0  0  0  0
   -0.4985    1.7137   -0.1155 H   0  0  0  0  0  0  0  0  0  0  0  0
    0.3154    1.1222    1.3074 H   0  0  0  0  0  0  0  0  0  0  0  0
  1  2  1  0  0  0  0
  2  3  1  0  0  0  0
  3  4  1  0  0  0  0
  4  5  1  0  0  0  0
  5  6  1  0  0  0  0
  6  7  1  0  0  0  0
  7  8  1  0  0  0  0
  4  9  1  0  0  0  0
  8  9  1  0  0  0  0
  1 10  1  0  0  0  0
  1 11  1  0  0  0  0
  1 12  1  0  0  0  0
  2 13  1  0  0  0  0
  2 14  1  0  0  0  0
  3 15  1  0  0  0  0
  3 16  1  0  0  0  0
  4 17  1  0  0  0  0
  5 18  1  0  0  0  0
  5 19  1  0  0  0  0
  6 20  1  0  0  0  0
  6 21  1  0  0  0  0
  7 22  1  0  0  0  0
  7 23  1  0  0  0  0
  8 24  1  0  0  0  0
  8 25  1  0  0  0  0
  9 26  1  0  0  0  0
  9 27  1  0  0  0  0
M  CHG  1   1   1
M  END
