19

N          0.99900       -0.31268        0.13369
C          2.46889       -0.29664        0.05164
C          3.06701       -1.13302        1.17570
C          4.56457       -1.11898        1.12269
C          5.43647       -0.24245        1.73679
C          6.79882       -0.55172        1.45501
C          6.92016       -1.64925        0.63284
S          5.39969       -2.29862        0.20235
Cl        -0.20201        2.17526       -0.54333
H          0.61930        0.44905       -0.49962
H          0.62234        0.07605        1.00905
H          0.50643       -1.16705       -0.12627
H          2.78367        0.74999        0.12573
H          2.73511       -0.67687       -0.93869
H          2.69176       -2.16258        1.12212
H          2.73911       -0.73782        2.14751
H          5.12199        0.58588        2.36268
H          7.64834        0.00146        1.83868
H          7.83052       -2.10209        0.26414
