  33

 N         -5.2015346072        0.4691815624       -1.6262952563
 C         -5.3592308256        0.8846136969       -0.2033968009
 C         -4.7041813056       -0.0962291923        0.7672467941
 C         -3.2257070718       -0.2336380926        0.5554775492
 C         -2.3616409191        0.7870325061        0.9338435156
 C         -1.0070010941        0.6743487808        0.7328304553
 C         -2.6918155124       -1.3726508919       -0.0393745455
 C         -1.3378233344       -1.4946426971       -0.2423446674
 C         -0.4687052186       -0.4702935750        0.1414057791
 N          0.8715055810       -0.5894782914       -0.0521633132
 N          1.6711537007        0.3517096505        0.2956576359
 C          3.0172084474        0.2208659987        0.1376000191
 C          3.5650457205       -0.9554718912       -0.3795870597
 C          4.9251415158       -1.0858558228       -0.5277837099
 C          5.7647678653       -0.0482119943       -0.1656596254
 C          5.2379077542        1.1234095249        0.3462704270
 C          3.8787576859        1.2610617365        0.4985434642
 H         -5.6435770434        1.1397850199       -2.2733776879
 H         -5.6318752439       -0.4525837044       -1.7924578368
 H         -4.2025800800        0.3977071239       -1.8844743753
 H         -6.4266805230        0.9924956623        0.0250035208
 H         -4.9245311186        1.8818854585       -0.0704435257
 H         -5.1754880673       -1.0787600361        0.6653214663
 H         -4.8872906561        0.2091196785        1.8030892945
 H         -2.7646116913        1.6719242373        1.3962800969
 H         -0.3362866376        1.4613043971        1.0307555537
 H         -3.3519774254       -2.1702432317       -0.3362645500
 H         -0.9255228126       -2.3799930724       -0.6948449820
 H          2.8989580495       -1.7548382273       -0.6554285298
 H          5.3386798229       -1.9986628992       -0.9260082017
 H          6.8315944122       -0.1533137057       -0.2820561861
 H          5.8953122330        1.9304996249        0.6275804643
 H          3.4577838491        2.1675508875        0.8989115223
          33
        -46.39390407
 N         -5.1011748677       -1.3486219377       -1.2411598923
 C         -5.4795128556       -0.0656549203       -0.5829084969
 C         -4.7327848885        0.1604086886        0.7302742772
 C         -3.2492154686        0.2803989951        0.5469763332
 C         -2.6859551356        1.4778261106        0.1212396213
 C         -1.3298778803        1.5924119139       -0.0691108949
 C         -2.4123813752       -0.8087360549        0.7677238869
 C         -1.0550863351       -0.7035649168        0.5782839550
 C         -0.4876779389        0.5001854421        0.1571924913
 N          0.8546789599        0.6117668462       -0.0253082868
 N          1.6303630767       -0.3927745514        0.1636313037
 C          2.9788426368       -0.2704549222        0.0195029426
 C          3.5535917671        0.9603496971       -0.3065050246
 C          4.9156547256        1.0800427028       -0.4452304656
 C          5.7306755263       -0.0224034885       -0.2634394371
 C          5.1770087858       -1.2480290342        0.0586311205
 C          3.8156988299       -1.3756531353        0.2000903985
 H         -5.6062973665       -1.4878765344       -2.1295355895
 H         -5.3147073062       -2.1534865372       -0.6335433520
 H         -4.0885907241       -1.3749891587       -1.4498345840
 H         -6.5631250425       -0.0548682049       -0.4128668074
 H         -5.2769503211        0.7644710403       -1.2693324732
 H         -4.9452267700       -0.6638647540        1.4182092306
 H         -5.1030786867        1.0611912088        1.2314704531
 H         -3.3262480608        2.3254891141       -0.0547963348
 H         -0.8949920628        2.5224794740       -0.3924274656
 H         -2.8377199780       -1.7416486041        1.0974791223
 H         -0.4051314827       -1.5425819891        0.7555537499
 H          2.9064692116        1.8096009916       -0.4434899520
 H          5.3500620923        2.0347910444       -0.6952899858
 H          6.7990602700        0.0739681162       -0.3726505008
 H          5.8153192786       -2.1056427538        0.1991989555
 H          3.3735800246       -2.3247264826        0.4510090684
