24
 xtb: 6.5.1 (fef0646)
N           -3.14285851299083       -1.50947101773731       -1.06053491819156
C           -2.23061444598467       -0.93001477529869       -0.02468684041402
C           -2.06904526146221        0.58156475213663       -0.17014539822465
C           -1.01377032751905        1.16381626855201        0.77892397837913
C            0.36972430969554        0.67882804038729        0.46609974283301
C            0.94534897460599       -0.36921245681613        1.19127211742674
C            2.20897585438397       -0.84866547663021        0.86299989454598
C            2.91149692861704       -0.29068454057178       -0.19835311833324
C            2.34884989799917        0.74743899949747       -0.93121845332968
C            1.08573661376741        1.22691396494334       -0.60211493080736
H           -2.81523941191620       -1.36802263230116       -2.01246033856998
H           -4.07562986946005       -1.04658065939001       -0.96017886097076
H           -3.28150081530917       -2.52151797486196       -0.89147991270280
H           -1.20252113615196       -1.37849247601999       -0.22021821785012
H           -2.48697541587424       -1.21387203592209        0.95396646499194
H           -3.05775403749966        1.03595180991230        0.04637932729256
H           -1.84529539680528        0.86436782634993       -1.19412399324514
H           -1.26017539686462        0.92592892375425        1.81358911597817
H           -1.02133322202625        2.26728532142823        0.72711995484524
H            0.39804296148408       -0.78741930801502        2.02424781222272
H            2.63614186666809       -1.64722646394112        1.45136039069706
H            3.88656583321193       -0.67371892552520       -0.44040839644536
H            2.89094149335999        1.15905883053626       -1.75976492571417
H            0.65000589840647        2.01619531032500       -1.18566479907041
