 xtb: 6.5.1 (fef0646)
          02032320343D

 24 24  0     0  0            999 V2000
   -3.1577   -1.5074   -1.0401 N   0  0  0  0  0  0  0  0  0  0  0  0
   -2.1735   -0.9293   -0.0778 C   0  0  0  0  0  0  0  0  0  0  0  0
   -2.0839    0.5897   -0.1575 C   0  0  0  0  0  0  0  0  0  0  0  0
   -1.0153    1.1764    0.7744 C   0  0  0  0  0  0  0  0  0  0  0  0
    0.3655    0.6820    0.4625 C   0  0  0  0  0  0  0  0  0  0  0  0
    0.9385   -0.3586    1.2007 C   0  0  0  0  0  0  0  0  0  0  0  0
    2.2009   -0.8454    0.8801 C   0  0  0  0  0  0  0  0  0  0  0  0
    2.9063   -0.3020   -0.1868 C   0  0  0  0  0  0  0  0  0  0  0  0
    2.3469    0.7282   -0.9329 C   0  0  0  0  0  0  0  0  0  0  0  0
    1.0843    1.2150   -0.6113 C   0  0  0  0  0  0  0  0  0  0  0  0
   -2.9066   -1.2635   -2.0037 H   0  0  0  0  0  0  0  0  0  0  0  0
   -4.0978   -1.1414   -0.8582 H   0  0  0  0  0  0  0  0  0  0  0  0
   -3.1950   -2.5300   -0.9702 H   0  0  0  0  0  0  0  0  0  0  0  0
   -1.1857   -1.3610   -0.2715 H   0  0  0  0  0  0  0  0  0  0  0  0
   -2.4356   -1.2335    0.9419 H   0  0  0  0  0  0  0  0  0  0  0  0
   -3.0642    1.0247    0.0662 H   0  0  0  0  0  0  0  0  0  0  0  0
   -1.8648    0.8815   -1.1898 H   0  0  0  0  0  0  0  0  0  0  0  0
   -1.2587    0.9334    1.8136 H   0  0  0  0  0  0  0  0  0  0  0  0
   -1.0207    2.2708    0.7223 H   0  0  0  0  0  0  0  0  0  0  0  0
    0.3954   -0.7803    2.0286 H   0  0  0  0  0  0  0  0  0  0  0  0
    2.6329   -1.6441    1.4600 H   0  0  0  0  0  0  0  0  0  0  0  0
    3.8849   -0.6788   -0.4350 H   0  0  0  0  0  0  0  0  0  0  0  0
    2.8910    1.1495   -1.7618 H   0  0  0  0  0  0  0  0  0  0  0  0
    0.6506    2.0105   -1.1921 H   0  0  0  0  0  0  0  0  0  0  0  0
  1  2  1  0  0  0  0
  2  3  1  0  0  0  0
  3  4  1  0  0  0  0
  4  5  1  0  0  0  0
  5  6  4  0  0  0  0
  6  7  4  0  0  0  0
  7  8  4  0  0  0  0
  8  9  4  0  0  0  0
  5 10  4  0  0  0  0
  9 10  4  0  0  0  0
  1 11  1  0  0  0  0
  1 12  1  0  0  0  0
  1 13  1  0  0  0  0
  2 14  1  0  0  0  0
  2 15  1  0  0  0  0
  3 16  1  0  0  0  0
  3 17  1  0  0  0  0
  4 18  1  0  0  0  0
  4 19  1  0  0  0  0
  6 20  1  0  0  0  0
  7 21  1  0  0  0  0
  8 22  1  0  0  0  0
  9 23  1  0  0  0  0
 10 24  1  0  0  0  0
M  CHG  1   1   1
M  END
