43
0.0
N            5.80805   1.00489   0.05260
C            5.46006   0.57774  -1.32643
C            4.08996  -0.08377  -1.34941
O            3.07609   0.81327  -0.90922
C            1.81154   0.26344  -0.80573
C            1.49623  -1.06140  -1.08773
C            0.21193  -1.54368  -0.94594
C           -0.84056  -0.73951  -0.51787
C           -0.56983   0.62796  -0.22736
C           -1.60351   1.50823   0.20724
C           -1.27941   2.83036   0.47393
C            0.01559   3.30652   0.32431
C            1.01410   2.47083  -0.09272
C            0.75042   1.12526  -0.37355
C           -2.19563  -1.25281  -0.36329
C           -2.51864  -2.57702  -0.62417
C           -3.81496  -3.05657  -0.47505
C           -4.81746  -2.22724  -0.06313
C           -4.55322  -0.87177   0.21824
C           -5.57787  -0.00238   0.64309
C           -5.30632   1.30743   0.91129
C           -4.01457   1.80344   0.77042
C           -2.96529   0.99729   0.35709
C           -3.23219  -0.37319   0.07046
Cl           5.62158  -1.90763   1.99844
H            6.72566   1.47584   0.10338
H            5.82506   0.18915   0.68340
H            5.08944   1.64726   0.41038
H            6.22692  -0.10209  -1.71594
H            5.45505   1.44844  -1.99149
H            4.08802  -0.95187  -0.68177
H            3.82960  -0.42724  -2.35727
H            2.26711  -1.72965  -1.42615
H            0.02934  -2.57723  -1.17714
H           -2.04020   3.51354   0.80466
H            0.23417   4.34037   0.53716
H            2.01905   2.83569  -0.21593
H           -1.75634  -3.26106  -0.94943
H           -4.02860  -4.09192  -0.68669
H           -5.82104  -2.60024   0.05162
H           -6.57829  -0.38531   0.75262
H           -6.09777   1.96412   1.23480
H           -3.83970   2.84068   0.99042
