43
2.977
N            4.39508  -0.22771   1.20146
C            5.20859   0.54650   0.22998
C            4.48312   0.76171  -1.09271
O            3.27894   1.51485  -0.93783
C            2.10829   0.81231  -0.71313
C            1.97291  -0.57079  -0.71861
C            0.76157  -1.18224  -0.47349
C           -0.39609  -0.45759  -0.20846
C           -0.31200   0.96332  -0.19380
C           -1.45829   1.76669   0.07579
C           -1.31526   3.14642   0.07482
C           -0.09172   3.75084  -0.17792
C            1.01442   2.98917  -0.43441
C            0.93350   1.59185  -0.44919
C           -1.67397  -1.10611   0.05419
C           -1.81688  -2.48645   0.04970
C           -3.04043  -3.09530   0.30438
C           -4.14731  -2.34219   0.56948
C           -4.06679  -0.93522   0.58833
C           -5.20011  -0.14359   0.86243
C           -5.10557   1.21735   0.87779
C           -3.89009   1.84333   0.62227
C           -2.74108   1.11876   0.34578
C           -2.82207  -0.30423   0.32784
Cl           3.76581  -3.38044  -0.32569
H            4.86638  -0.32899   2.11486
H            4.19984  -1.17333   0.83878
H            3.49154   0.23836   1.35710
H            6.16791   0.04232   0.06415
H            5.45167   1.52297   0.66409
H            4.27535  -0.18051  -1.60603
H            5.11268   1.33686  -1.78274
H            2.82927  -1.19170  -0.90130
H            0.72436  -2.25623  -0.48443
H           -2.16447   3.77444   0.27320
H           -0.01359   4.82590  -0.17067
H            1.96691   3.45167  -0.62893
H           -0.96803  -3.11290  -0.15487
H           -3.11395  -4.17085   0.29226
H           -5.09406  -2.81552   0.76726
H           -6.14165  -0.62704   1.06048
H           -5.97857   1.81341   1.08971
H           -3.85473   2.91716   0.64397
