43
1.09
N            5.71025  -0.67504  -1.64707
C            4.63439   0.34931  -1.53639
C            4.42695   0.80625  -0.09633
O            3.24342   1.58497   0.07709
C            2.05553   0.87817   0.07524
C            1.94635  -0.50657   0.00936
C            0.71963  -1.13592   0.01137
C           -0.47753  -0.42949   0.08004
C           -0.41883   0.99120   0.15332
C           -1.60676   1.77547   0.22960
C           -1.48596   3.15541   0.30290
C           -0.24577   3.77852   0.30138
C            0.89971   3.03570   0.22682
C            0.84274   1.63914   0.15225
C           -1.77277  -1.09694   0.08180
C           -1.89263  -2.47783   0.01391
C           -3.13334  -3.10492   0.01597
C           -4.28112  -2.36986   0.08526
C           -4.22582  -0.96338   0.15626
C           -5.40203  -0.19033   0.22835
C           -5.33192   1.17041   0.29730
C           -4.09913   1.81440   0.29762
C           -2.90801   1.10851   0.22905
C           -2.96344  -0.31391   0.15560
Cl           4.28893  -3.19744   0.30127
H            6.60450  -0.31363  -1.28323
H            5.85824  -0.97829  -2.61862
H            5.45831  -1.50494  -1.09039
H            3.69776  -0.05849  -1.93090
H            4.86000   1.21418  -2.17010
H            5.26828   1.42917   0.22754
H            4.40305  -0.03729   0.60050
H            2.83402  -1.11064  -0.03892
H            0.69998  -2.20914  -0.04146
H           -2.36620   3.76893   0.36336
H           -0.18613   4.85321   0.35949
H            1.86492   3.51257   0.22520
H           -1.01164  -3.09060  -0.04212
H           -3.18767  -4.18033  -0.03780
H           -5.24130  -2.85722   0.08655
H           -6.35700  -0.68784   0.22837
H           -6.23789   1.75223   0.35205
H           -4.08420   2.88751   0.35272
