 xtb: 6.5.1 (fef0646)
          01242310103D

 20 19  0     0  0            999 V2000
   -1.7587   -1.4797   -0.3642 N   0  0  0  0  0  0  0  0  0  0  0  0
   -2.3291   -0.3072    0.3539 C   0  0  0  0  0  0  0  0  0  0  0  0
   -1.8099    1.0494   -0.1399 C   0  0  0  0  0  0  0  0  0  0  0  0
   -0.3940    1.4575    0.3363 C   0  0  0  0  0  0  0  0  0  0  0  0
    0.7874    1.0268   -0.5669 C   0  0  0  0  0  0  0  0  0  0  0  0
    1.5495   -0.1508   -0.0309 C   0  0  0  0  0  0  0  0  0  0  0  0
    2.8125    0.0686    0.3740 O   0  0  0  0  0  0  0  0  0  0  0  0
    1.0169   -1.2302    0.0288 O   0  0  0  0  0  0  0  0  0  0  0  0
   -2.1123   -2.3728    0.0090 H   0  0  0  0  0  0  0  0  0  0  0  0
   -0.7267   -1.4779   -0.2501 H   0  0  0  0  0  0  0  0  0  0  0  0
   -1.9707   -1.4532   -1.3716 H   0  0  0  0  0  0  0  0  0  0  0  0
   -2.1328   -0.4099    1.4288 H   0  0  0  0  0  0  0  0  0  0  0  0
   -3.4226   -0.3506    0.2518 H   0  0  0  0  0  0  0  0  0  0  0  0
   -2.5221    1.8231    0.1812 H   0  0  0  0  0  0  0  0  0  0  0  0
   -1.8500    1.0768   -1.2345 H   0  0  0  0  0  0  0  0  0  0  0  0
   -0.2238    1.0846    1.3539 H   0  0  0  0  0  0  0  0  0  0  0  0
   -0.3648    2.5523    0.4409 H   0  0  0  0  0  0  0  0  0  0  0  0
    1.5083    1.8467   -0.6802 H   0  0  0  0  0  0  0  0  0  0  0  0
    0.4401    0.7975   -1.5789 H   0  0  0  0  0  0  0  0  0  0  0  0
    3.2016   -0.7670    0.6827 H   0  0  0  0  0  0  0  0  0  0  0  0
  1  2  1  0  0  0  0
  2  3  1  0  0  0  0
  3  4  1  0  0  0  0
  4  5  1  0  0  0  0
  5  6  1  0  0  0  0
  6  7  1  0  0  0  0
  6  8  2  0  0  0  0
  1  9  1  0  0  0  0
  1 10  1  0  0  0  0
  1 11  1  0  0  0  0
  2 12  1  0  0  0  0
  2 13  1  0  0  0  0
  3 14  1  0  0  0  0
  3 15  1  0  0  0  0
  4 16  1  0  0  0  0
  4 17  1  0  0  0  0
  5 18  1  0  0  0  0
  5 19  1  0  0  0  0
  7 20  1  0  0  0  0
M  CHG  1   1   1
M  END
