  21

 N         -2.5260200631        0.9357113037        0.8702154615
 C         -2.4242755363       -0.4585409608        0.3502455288
 C         -1.4624410056       -0.5837550601       -0.8310093811
 C         -0.0363980303       -0.2879663645       -0.4726455729
 C          0.7435379486       -1.2452416863        0.1846439396
 C          2.0649471090       -0.9754765179        0.5254160211
 C          2.6261033704        0.2578598204        0.2159668187
 C          1.8626131803        1.2213909675       -0.4320445561
 C          0.5403107026        0.9518118552       -0.7718510769
 H         -3.1687895877        0.9967187039        1.6744628479
 H         -2.8772587003        1.5775223118        0.1441573638
 H         -1.6047338152        1.2876696826        1.1789546958
 H         -3.4251654669       -0.8054977774        0.0641033718
 H         -2.1001982279       -1.1210972324        1.1611970774
 H         -1.7795976310        0.0915918090       -1.6319021553
 H         -1.5151859764       -1.5895841832       -1.2624604410
 H          0.3150067438       -2.2048107727        0.4186417416
 H          2.6574281778       -1.7256479621        1.0243833749
 H          3.6525673011        0.4651592065        0.4741644151
 H          2.2981096795        2.1767620642       -0.6778656007
 H         -0.0446660304        1.7009025163       -1.2782130750
          21
        -25.71977771
 N         -2.5757387266        0.7568590181       -0.9123939360
 C         -2.4752514380       -0.5051050360       -0.1236706437
 C         -1.4473187298       -0.4190467156        1.0042211541
 C         -0.0459615926       -0.2021283001        0.5154157509
 C          0.6890018705       -1.2599062733       -0.0295780054
 C          1.9865245012       -1.0625821767       -0.4907771934
 C          2.5678239200        0.1977208590       -0.4165675549
 C          1.8493829875        1.2599500202        0.1185453501
 C          0.5513388201        1.0620709892        0.5792805745
 H         -3.2684648709        0.6783669669       -1.6721835525
 H         -1.6712237125        1.0006446097       -1.3413256229
 H         -2.8628199393        1.5482789916       -0.3129916429
 H         -2.2155902221       -1.3294368302       -0.7977913168
 H         -3.4650104124       -0.7520996605        0.2812905986
 H         -1.4719730580       -1.3292152971        1.6141221652
 H         -1.7208768217        0.3927014124        1.6852167627
 H          0.2454914001       -2.2396624236       -0.0802381637
 H          2.5441850825       -1.8892385489       -0.9010089229
 H          3.5760105690        0.3496872516       -0.7683631019
 H          2.3013864456        2.2367710432        0.1834092970
 H          0.0028180833        1.8862748970        1.0030765123
