  21

 N          3.0757330129       -2.5457166083       -1.0120796410
 C          2.4298896023       -1.5381662784       -1.9048205940
 C          2.8657158685       -0.1469609049       -1.4389508229
 C          4.3726810645       -0.0931862086       -1.4341015875
 C          5.0728470616        0.2650180893       -2.5795198487
 C          6.4562087503        0.2290030063       -2.5937888620
 C          7.1565297908       -0.1793367863       -1.4687864728
 C          6.4709352565       -0.5357580214       -0.3209919292
 C          5.0830346829       -0.5023770928       -0.3031220935
 H          3.1425166232       -3.4722161484       -1.4435223956
 H          2.5673069417       -2.6281094444       -0.1246104869
 H          4.0349555979       -2.1539145952       -0.8053040153
 H          1.3471346844       -1.6548431438       -1.8755998629
 H          2.7793013318       -1.7094506477       -2.9238134576
 H          2.4683412532        0.0585928078       -0.4439786016
 H          2.4590391813        0.5962816760       -2.1224849966
 H          4.5324902970        0.5893575574       -3.4558074048
 H          6.9897457182        0.5248280288       -3.4829765777
 H          8.2342893062       -0.2026663508       -1.4819525015
 H          7.0103589296       -0.8307711412        0.5656855171
 H          4.5651850455       -0.6978377936        0.6286566349
