23
0.165
N           -3.05093   1.42060   0.61191
C           -2.26568   2.06912  -0.47380
C           -0.80862   1.79730  -0.36821
C           -0.31866   0.56824  -0.23129
C            1.10250   0.22485  -0.13831
C            1.50554  -1.09451  -0.34435
C            2.83629  -1.45051  -0.26274
C            3.79103  -0.49647   0.03037
C            3.41068   0.81404   0.24472
C            2.08004   1.17280   0.16310
Cl          -2.59785  -2.05742   0.22437
H           -4.05644   1.65290   0.56066
H           -2.70472   1.71602   1.54275
H           -2.96625   0.39160   0.56566
H           -2.45097   3.15086  -0.46071
H           -2.62917   1.72049  -1.44846
H           -0.12723   2.62961  -0.43632
H           -1.01165  -0.25566  -0.19182
H            0.75962  -1.83909  -0.57063
H            3.13124  -2.47508  -0.42745
H            4.83141  -0.77474   0.09430
H            4.15532   1.55877   0.47894
H            1.79183   2.19375   0.34834
