46
0.745
N           -6.99368   3.46630   0.84391
C           -7.97465   2.35157   0.70862
C           -7.57320   1.37767  -0.39808
C           -6.33112   0.62599  -0.06734
C           -6.28495  -0.59390   0.52741
C           -4.96959  -1.07767   0.74945
C           -3.98734  -0.22557   0.32625
C           -2.56708  -0.44833   0.42269
C           -1.95505  -1.55659   0.94357
C           -0.53658  -1.52189   0.91410
C            0.29385  -2.64411   1.43059
C           -0.03739  -0.36255   0.35780
C            1.34137   0.00236   0.16074
C            1.75630   1.16764  -0.42976
C            3.15781   1.30453  -0.52464
C            3.86449   0.25024  -0.00930
C            5.30528   0.16321   0.00240
C            6.08657  -0.85899   0.49163
C            5.56754  -2.10486   1.12036
C            7.48390  -0.60907   0.33665
C            7.77054   0.57155  -0.25512
S            6.32674   1.42632  -0.64659
S            2.74358  -0.93575   0.61240
S           -1.35603   0.67796  -0.11873
S           -4.71529   1.20350  -0.36240
Cl           0.70666  -2.10647  -2.54935
H           -7.04245   4.09986   0.03611
H           -6.04238   3.07164   0.86019
H           -7.13700   4.02006   1.69885
H           -8.97486   2.76205   0.52527
H           -8.04589   1.80669   1.65735
H           -7.41866   1.92667  -1.33284
H           -8.38148   0.66541  -0.59965
H           -7.17166  -1.14038   0.80941
H           -4.76416  -2.02940   1.21288
H           -2.50205  -2.39444   1.34369
H           -0.32837  -3.45028   1.81920
H            0.94450  -2.30519   2.23719
H            0.92117  -3.05726   0.64019
H            1.06365   1.90992  -0.79368
H            3.63910   2.16218  -0.96650
H            6.38159  -2.76405   1.42255
H            4.93291  -2.65446   0.42456
H            4.97737  -1.87406   2.00724
H            8.23760  -1.30761   0.66634
H            8.75631   0.94285  -0.46116
