28

N          1.27238        0.69713        0.52129
C          2.48239        0.13117       -0.08632
C          2.20473       -0.03384       -1.57870
C          2.91880       -1.12837        0.63252
C          2.44573       -2.39426        0.27227
C          2.78945       -3.52893        1.02331
C          3.72986       -1.02373        1.77783
C          4.07805       -2.15166        2.55034
C          3.59581       -3.42090        2.16536
C          3.91457       -4.54693        2.94246
C          4.70087       -4.42454        4.08878
C          5.18014       -3.17475        4.46722
C          4.87027       -2.04669        3.70669
Cl        -0.03327       -0.09443        2.89280
H          1.37392        0.86329        1.54971
H          0.51852       -0.00704        0.65100
H          0.85871        1.53501        0.11408
H          3.26304        0.89308        0.02666
H          1.27531       -0.58558       -1.76814
H          3.02012       -0.56737       -2.08111
H          2.10182        0.94381       -2.06185
H          1.78104       -2.53923       -0.57512
H          2.39428       -4.49653        0.72546
H          4.07977       -0.04390        2.10918
H          3.53503       -5.52888        2.66919
H          4.92620       -5.30087        4.68885
H          5.78212       -3.07494        5.36850
H          5.24125       -1.07873        4.03334
