28

N          1.32045        0.02630        0.16727
C          2.78065       -0.01419        0.06422
C          3.33485        1.13389        0.91602
C          3.23974        0.04806       -1.38055
C          3.48022       -1.12589       -2.11455
C          3.86989       -1.05163       -3.46117
C          3.40129        1.27951       -2.03495
C          3.79276        1.36528       -3.36995
C          4.01467        0.18300       -4.11193
C          4.36999        0.29289       -5.46472
C          4.48147        1.54402       -6.07906
C          4.26179        2.70774       -5.34542
C          3.91719        2.61631       -3.99949
Cl        -1.40195       -0.87407        0.44956
H          0.79332       -0.72031       -0.33234
H          0.86518        0.87602       -0.18174
H          0.91309       -0.11301        1.10703
H          3.10003       -0.96108        0.51563
H          3.00351        2.11741        0.55767
H          4.43245        1.13551        0.90163
H          3.00708        1.05970        1.95632
H          3.36566       -2.10087       -1.66545
H          4.04576       -1.97865       -4.01112
H          3.22290        2.21565       -1.50939
H          4.54723       -0.60084       -6.05955
H          4.74125        1.61157       -7.13057
H          4.34684        3.68031       -5.81998
H          3.74976        3.53435       -3.43749
