 xtb: 6.5.1 (fef0646)
          01242316553D

 28 28  0     0  0            999 V2000
    0.8810    0.3896    0.2458 N   0  0  0  0  0  0  0  0  0  0  0  0
    2.3374    0.1532    0.0671 C   0  0  0  0  0  0  0  0  0  0  0  0
    2.6560    0.0369   -1.4196 C   0  0  0  0  0  0  0  0  0  0  0  0
    2.7440   -1.0843    0.8291 C   0  0  0  0  0  0  0  0  0  0  0  0
    2.1581   -2.3286    0.5206 C   0  0  0  0  0  0  0  0  0  0  0  0
    2.5160   -3.4577    1.1987 C   0  0  0  0  0  0  0  0  0  0  0  0
    3.6870   -1.0154    1.8193 C   0  0  0  0  0  0  0  0  0  0  0  0
    4.0794   -2.1619    2.5392 C   0  0  0  0  0  0  0  0  0  0  0  0
    3.4814   -3.4099    2.2256 C   0  0  0  0  0  0  0  0  0  0  0  0
    3.8687   -4.5558    2.9505 C   0  0  0  0  0  0  0  0  0  0  0  0
    4.8034   -4.4693    3.9440 C   0  0  0  0  0  0  0  0  0  0  0  0
    5.3940   -3.2341    4.2564 C   0  0  0  0  0  0  0  0  0  0  0  0
    5.0420   -2.1065    3.5688 C   0  0  0  0  0  0  0  0  0  0  0  0
    0.2314    0.8117    3.1837 Cl  0  0  0  0  0  0  0  0  0  0  0  0
    0.6524    0.5342    1.2645 H   0  0  0  0  0  0  0  0  0  0  0  0
    0.3409   -0.4177   -0.0757 H   0  0  0  0  0  0  0  0  0  0  0  0
    0.5792    1.2243   -0.2626 H   0  0  0  0  0  0  0  0  0  0  0  0
    2.8619    1.0106    0.4951 H   0  0  0  0  0  0  0  0  0  0  0  0
    2.1265   -0.7979   -1.8678 H   0  0  0  0  0  0  0  0  0  0  0  0
    3.7203   -0.1309   -1.5518 H   0  0  0  0  0  0  0  0  0  0  0  0
    2.3897    0.9515   -1.9409 H   0  0  0  0  0  0  0  0  0  0  0  0
    1.4220   -2.4015   -0.2649 H   0  0  0  0  0  0  0  0  0  0  0  0
    2.0614   -4.4087    0.9625 H   0  0  0  0  0  0  0  0  0  0  0  0
    4.1418   -0.0696    2.0759 H   0  0  0  0  0  0  0  0  0  0  0  0
    3.4105   -5.5040    2.7083 H   0  0  0  0  0  0  0  0  0  0  0  0
    5.0945   -5.3493    4.4984 H   0  0  0  0  0  0  0  0  0  0  0  0
    6.1283   -3.1839    5.0469 H   0  0  0  0  0  0  0  0  0  0  0  0
    5.4917   -1.1535    3.8082 H   0  0  0  0  0  0  0  0  0  0  0  0
  1  2  1  0  0  0  0
  2  3  1  0  0  0  0
  2  4  1  0  0  0  0
  4  5  4  0  0  0  0
  5  6  2  0  0  0  0
  4  7  2  0  0  0  0
  7  8  4  0  0  0  0
  6  9  4  0  0  0  0
  8  9  4  0  0  0  0
  9 10  4  0  0  0  0
 10 11  2  0  0  0  0
 11 12  4  0  0  0  0
  8 13  4  0  0  0  0
 12 13  2  0  0  0  0
  1 15  1  0  0  0  0
  1 16  1  0  0  0  0
  1 17  1  0  0  0  0
  2 18  1  0  0  0  0
  3 19  1  0  0  0  0
  3 20  1  0  0  0  0
  3 21  1  0  0  0  0
  5 22  1  0  0  0  0
  6 23  1  0  0  0  0
  7 24  1  0  0  0  0
 10 25  1  0  0  0  0
 11 26  1  0  0  0  0
 12 27  1  0  0  0  0
 13 28  1  0  0  0  0
M  END
