17
0.0
N           -1.71972  -0.00015   0.48630
C           -0.86589   0.00127  -0.73942
C            0.64958  -0.00005  -0.46515
C            1.09617   1.26366   0.27549
C            1.09468  -1.26466   0.27448
H           -1.54768  -0.83203   1.06092
H           -2.71542   0.00273   0.23993
H           -1.54404   0.82792   1.06535
H           -1.12515   0.87641  -1.34548
H           -1.12652  -0.87146  -1.34849
H            1.15534  -0.00001  -1.44737
H            0.68406   1.29211   1.28308
H            0.77285   2.16677  -0.24288
H            2.18182   1.30597   0.37067
H            0.77171  -2.16705  -0.24552
H            0.68134  -1.29423   1.28146
H            2.18018  -1.30751   0.37108
