28
 xtb: 6.5.1 (fef0646)
N           -3.36685335637058        0.21843773588035        0.31486479357641
C           -3.16743452767944        1.70234803000405        0.28571170942460
C           -1.93386544219834        2.14381028826610        1.07147925986841
C           -0.67690077448567        1.49417742274923        0.57639196321591
C           -0.11282560392142        0.45261630897408        1.26104839820442
C            1.04683303317304       -0.19836173890974        0.78356756254684
C            1.63872584288140       -1.28085010491652        1.47396170025794
C            2.75009671273757       -1.89490599242796        0.97946183169733
C            3.32519669256472       -1.46122847748249       -0.22316651832290
C            2.78037394328787       -0.42044893554648       -0.91388827804668
C            1.62678958292336        0.23892483141990       -0.43071071923179
C            1.02699087644580        1.31525390611081       -1.12269633674858
C           -0.09075269934073        1.91917214515460       -0.63141833730337
Cl          -1.24262286148141       -1.59845314883763       -1.27536788466624
H           -4.31891326311081        0.02016984619869       -0.08459328129593
H           -3.47448975522095       -0.04329621866012        1.34845800500969
H           -2.67590053345444       -0.26259381893126       -0.09858130181375
H           -4.05433991723650        2.28545879057831        0.68009961114876
H           -3.07384466124498        2.04583118695788       -0.74572106294955
H           -2.06369552594512        1.91578538073991        2.14153644075735
H           -1.79701301434982        3.24519626094264        1.04496257162645
H           -0.56667618624272        0.11253842282603        2.17798667133124
H            1.19060252925776       -1.61689751127361        2.39470968682060
H            3.18922911813157       -2.71852350423121        1.51219754648920
H            4.20101432830778       -1.95389328093256       -0.60282659115850
H            3.21591837924877       -0.08667813723887       -1.83963590850014
H            1.45729184947916        1.64891089039617       -2.04879967206250
H           -0.54959221959705        2.73736263195786       -1.16623678018296
