21

N          2.84089        0.98641       -1.35800
C          2.37035        1.64724       -0.11075
C          2.97012        0.96614        1.12254
C          4.48081        0.99874        1.14665
C          5.17107        2.22067        1.15625
C          6.56745        2.24659        1.16987
C          7.28243        1.05214        1.19066
Br         9.17051        1.08986        1.21752
C          6.61209       -0.16845        1.20133
C          5.21515       -0.19591        1.18303
H          2.47297        1.45595       -2.19484
H          2.55508       -0.00011       -1.40207
H          3.87051        1.01033       -1.42147
H          1.27881        1.57609       -0.10815
H          2.65870        2.69996       -0.18866
H          2.61723       -0.07215        1.16396
H          2.59630        1.45641        2.02968
H          4.63991        3.17079        1.17831
H          7.08990        3.20107        1.18387
H          7.17092       -1.10186        1.24369
H          4.71739       -1.16376        1.22134
