 xtb: 6.5.1 (fef0646)
          01242310113D

 41 40  0     0  0            999 V2000
   -1.7932   -2.5083    0.0468 N   0  0  0  0  0  0  0  0  0  0  0  0
   -3.0956   -1.7933    0.1579 C   0  0  0  0  0  0  0  0  0  0  0  0
   -3.2988   -0.7584   -0.9437 C   0  0  0  0  0  0  0  0  0  0  0  0
   -2.2886    0.3917   -0.9190 C   0  0  0  0  0  0  0  0  0  0  0  0
   -2.3536    1.2376    0.3543 C   0  0  0  0  0  0  0  0  0  0  0  0
   -1.5210    2.5212    0.2856 C   0  0  0  0  0  0  0  0  0  0  0  0
   -0.0119    2.2990    0.1481 C   0  0  0  0  0  0  0  0  0  0  0  0
    0.6175    1.5806    1.3441 C   0  0  0  0  0  0  0  0  0  0  0  0
    2.1492    1.6098    1.3409 C   0  0  0  0  0  0  0  0  0  0  0  0
    2.8002    0.8988    0.1510 C   0  0  0  0  0  0  0  0  0  0  0  0
    2.5694   -0.6127    0.1317 C   0  0  0  0  0  0  0  0  0  0  0  0
    3.2978   -1.3143   -1.0166 C   0  0  0  0  0  0  0  0  0  0  0  0
    3.0947   -2.8212   -1.0188 C   0  0  0  0  0  0  0  0  0  0  0  0
   -1.6952   -3.2376    0.7707 H   0  0  0  0  0  0  0  0  0  0  0  0
   -0.9960   -1.8620    0.1479 H   0  0  0  0  0  0  0  0  0  0  0  0
   -1.7057   -2.9701   -0.8712 H   0  0  0  0  0  0  0  0  0  0  0  0
   -3.1682   -1.3169    1.1422 H   0  0  0  0  0  0  0  0  0  0  0  0
   -3.9075   -2.5318    0.1334 H   0  0  0  0  0  0  0  0  0  0  0  0
   -4.3128   -0.3443   -0.8790 H   0  0  0  0  0  0  0  0  0  0  0  0
   -3.2568   -1.2655   -1.9155 H   0  0  0  0  0  0  0  0  0  0  0  0
   -2.4555    1.0442   -1.7853 H   0  0  0  0  0  0  0  0  0  0  0  0
   -1.2750   -0.0012   -1.0526 H   0  0  0  0  0  0  0  0  0  0  0  0
   -2.0391    0.6388    1.2159 H   0  0  0  0  0  0  0  0  0  0  0  0
   -3.4021    1.4922    0.5541 H   0  0  0  0  0  0  0  0  0  0  0  0
   -1.7082    3.1284    1.1801 H   0  0  0  0  0  0  0  0  0  0  0  0
   -1.8808    3.1313   -0.5524 H   0  0  0  0  0  0  0  0  0  0  0  0
    0.4883    3.2669    0.0162 H   0  0  0  0  0  0  0  0  0  0  0  0
    0.1993    1.7444   -0.7726 H   0  0  0  0  0  0  0  0  0  0  0  0
    0.2637    0.5449    1.3849 H   0  0  0  0  0  0  0  0  0  0  0  0
    0.2461    2.0426    2.2676 H   0  0  0  0  0  0  0  0  0  0  0  0
    2.5296    1.1665    2.2696 H   0  0  0  0  0  0  0  0  0  0  0  0
    2.4805    2.6556    1.3682 H   0  0  0  0  0  0  0  0  0  0  0  0
    3.8809    1.0895    0.1545 H   0  0  0  0  0  0  0  0  0  0  0  0
    2.4418    1.3366   -0.7871 H   0  0  0  0  0  0  0  0  0  0  0  0
    1.4969   -0.8271    0.0690 H   0  0  0  0  0  0  0  0  0  0  0  0
    2.8927   -1.0439    1.0863 H   0  0  0  0  0  0  0  0  0  0  0  0
    4.3690   -1.0821   -0.9609 H   0  0  0  0  0  0  0  0  0  0  0  0
    2.9652   -0.8877   -1.9713 H   0  0  0  0  0  0  0  0  0  0  0  0
    3.6187   -3.3035   -1.8469 H   0  0  0  0  0  0  0  0  0  0  0  0
    2.0378   -3.0781   -1.1057 H   0  0  0  0  0  0  0  0  0  0  0  0
    3.4614   -3.2707   -0.0943 H   0  0  0  0  0  0  0  0  0  0  0  0
  1  2  1  0  0  0  0
  2  3  1  0  0  0  0
  3  4  1  0  0  0  0
  4  5  1  0  0  0  0
  5  6  1  0  0  0  0
  6  7  1  0  0  0  0
  7  8  1  0  0  0  0
  8  9  1  0  0  0  0
  9 10  1  0  0  0  0
 10 11  1  0  0  0  0
 11 12  1  0  0  0  0
 12 13  1  0  0  0  0
  1 14  1  0  0  0  0
  1 15  1  0  0  0  0
  1 16  1  0  0  0  0
  2 17  1  0  0  0  0
  2 18  1  0  0  0  0
  3 19  1  0  0  0  0
  3 20  1  0  0  0  0
  4 21  1  0  0  0  0
  4 22  1  0  0  0  0
  5 23  1  0  0  0  0
  5 24  1  0  0  0  0
  6 25  1  0  0  0  0
  6 26  1  0  0  0  0
  7 27  1  0  0  0  0
  7 28  1  0  0  0  0
  8 29  1  0  0  0  0
  8 30  1  0  0  0  0
  9 31  1  0  0  0  0
  9 32  1  0  0  0  0
 10 33  1  0  0  0  0
 10 34  1  0  0  0  0
 11 35  1  0  0  0  0
 11 36  1  0  0  0  0
 12 37  1  0  0  0  0
 12 38  1  0  0  0  0
 13 39  1  0  0  0  0
 13 40  1  0  0  0  0
 13 41  1  0  0  0  0
M  CHG  1   1   1
M  END
