 xtb: 6.5.1 (fef0646)
          01232314283D

 15 14  0     0  0            999 V2000
    3.1251    1.3196    0.0037 N   0  0  0  0  0  0  0  0  0  0  0  0
    2.3531    0.0494    0.0560 C   0  0  0  0  0  0  0  0  0  0  0  0
    2.9019   -0.8741   -1.0251 C   0  0  0  0  0  0  0  0  0  0  0  0
    4.7470   -0.8822   -0.8717 S   0  0  0  0  0  0  0  0  0  0  0  0
    5.2283   -0.9451   -2.6165 C   0  0  0  0  0  0  0  0  0  0  0  0
    3.1296    1.8219    0.8952 H   0  0  0  0  0  0  0  0  0  0  0  0
    2.7875    1.9472   -0.7323 H   0  0  0  0  0  0  0  0  0  0  0  0
    4.1099    0.9635   -0.2474 H   0  0  0  0  0  0  0  0  0  0  0  0
    1.2878    0.2343   -0.0858 H   0  0  0  0  0  0  0  0  0  0  0  0
    2.5072   -0.4061    1.0353 H   0  0  0  0  0  0  0  0  0  0  0  0
    2.6520   -0.5223   -2.0250 H   0  0  0  0  0  0  0  0  0  0  0  0
    2.5219   -1.8850   -0.8956 H   0  0  0  0  0  0  0  0  0  0  0  0
    6.3132   -0.9108   -2.6324 H   0  0  0  0  0  0  0  0  0  0  0  0
    4.8204   -0.0948   -3.1542 H   0  0  0  0  0  0  0  0  0  0  0  0
    4.8850   -1.8822   -3.0437 H   0  0  0  0  0  0  0  0  0  0  0  0
  1  2  1  0  0  0  0
  2  3  1  0  0  0  0
  3  4  1  0  0  0  0
  4  5  1  0  0  0  0
  1  6  1  0  0  0  0
  1  7  1  0  0  0  0
  1  8  1  0  0  0  0
  2  9  1  0  0  0  0
  2 10  1  0  0  0  0
  3 11  1  0  0  0  0
  3 12  1  0  0  0  0
  5 13  1  0  0  0  0
  5 14  1  0  0  0  0
  5 15  1  0  0  0  0
M  CHG  1   1   1
M  END
