22
 xtb: 6.5.1 (fef0646)
N           -3.89295944355989        0.88961399699818        0.00511526807362
C           -3.45941970163116        1.88830244965211        1.02921473158834
C           -2.20935075379054        2.65692578164183        0.60497005479181
C           -1.02353253442801        1.76617577289772        0.38184727908832
C           -0.37927348171854        1.17297678714097        1.45752908583660
C            0.69765065644967        0.32896222208864        1.25568354317476
C            1.14319588724944        0.06864721739719       -0.02277395287683
Br           2.62552614607963       -1.11796273003753       -0.30094984620818
C            0.51396309041128        0.65557084093086       -1.09982809871715
C           -0.56567058707294        1.49701523110297       -0.90002025010820
Cl          -1.92233765584324       -1.63732382884769       -0.34076766433840
H           -4.80884355319280        0.51636721179379        0.26948884291013
H           -3.22223970066936        0.21014354803488       -0.13084122316826
H           -4.05518015203284        1.42768445919484       -0.90085825127883
H           -3.27906006633132        1.40699289192968        1.98028962872375
H           -4.26750906670713        2.64947674744296        1.25103491181604
H           -1.92566894702883        3.43330193206718        1.36703076788437
H           -2.39744452824194        3.24852173827338       -0.30118073941351
H           -0.71995021594911        1.39072480941013        2.46340437228639
H            1.19776609290992       -0.12782457589804        2.09264773087586
H            0.84477608188134        0.42968977488465       -2.09240734991241
H           -1.07713175837820        1.94387528851305       -1.73624921996705
