 xtb: 6.5.1 (fef0646)
          01242317013D

 22 21  0     0  0            999 V2000
   -3.9294    0.9907    0.0078 N   0  0  0  0  0  0  0  0  0  0  0  0
   -3.4618    1.9565    1.0418 C   0  0  0  0  0  0  0  0  0  0  0  0
   -2.1931    2.6941    0.6197 C   0  0  0  0  0  0  0  0  0  0  0  0
   -1.0264    1.7790    0.3924 C   0  0  0  0  0  0  0  0  0  0  0  0
   -0.3781    1.1865    1.4661 C   0  0  0  0  0  0  0  0  0  0  0  0
    0.6929    0.3356    1.2605 C   0  0  0  0  0  0  0  0  0  0  0  0
    1.1273    0.0654   -0.0196 C   0  0  0  0  0  0  0  0  0  0  0  0
    2.6005   -1.1040   -0.3013 Br  0  0  0  0  0  0  0  0  0  0  0  0
    0.4882    0.6444   -1.0951 C   0  0  0  0  0  0  0  0  0  0  0  0
   -0.5845    1.4939   -0.8916 C   0  0  0  0  0  0  0  0  0  0  0  0
   -1.8262   -1.8180   -0.3860 Cl  0  0  0  0  0  0  0  0  0  0  0  0
   -4.8181    0.5439    0.2729 H   0  0  0  0  0  0  0  0  0  0  0  0
   -3.2344    0.2383   -0.1377 H   0  0  0  0  0  0  0  0  0  0  0  0
   -4.0695    1.4606   -0.8966 H   0  0  0  0  0  0  0  0  0  0  0  0
   -3.2828    1.4223    1.9820 H   0  0  0  0  0  0  0  0  0  0  0  0
   -4.2622    2.6749    1.2581 H   0  0  0  0  0  0  0  0  0  0  0  0
   -1.9158    3.4415    1.3720 H   0  0  0  0  0  0  0  0  0  0  0  0
   -2.3887    3.2618   -0.2962 H   0  0  0  0  0  0  0  0  0  0  0  0
   -0.7163    1.3975    2.4664 H   0  0  0  0  0  0  0  0  0  0  0  0
    1.1981   -0.1246    2.0937 H   0  0  0  0  0  0  0  0  0  0  0  0
    0.8342    0.4237   -2.0915 H   0  0  0  0  0  0  0  0  0  0  0  0
   -1.0837    1.9422   -1.7336 H   0  0  0  0  0  0  0  0  0  0  0  0
  1  2  1  0  0  0  0
  2  3  1  0  0  0  0
  3  4  1  0  0  0  0
  4  5  4  0  0  0  0
  5  6  4  0  0  0  0
  6  7  4  0  0  0  0
  7  8  1  0  0  0  0
  7  9  4  0  0  0  0
  4 10  4  0  0  0  0
  9 10  4  0  0  0  0
  1 12  1  0  0  0  0
  1 13  1  0  0  0  0
  1 14  1  0  0  0  0
  2 15  1  0  0  0  0
  2 16  1  0  0  0  0
  3 17  1  0  0  0  0
  3 18  1  0  0  0  0
  5 19  1  0  0  0  0
  6 20  1  0  0  0  0
  9 21  1  0  0  0  0
 10 22  1  0  0  0  0
M  END
