27

N          2.81714        2.43914       -1.25212
C          2.41435        1.16402       -0.59865
C          3.04912       -0.03538       -1.30705
C          4.55897       -0.00014       -1.32494
C          5.29807       -0.00187       -0.13092
C          6.70417        0.04360       -0.14217
C          7.44870        0.05667        1.04941
C          8.84359        0.10501        1.02033
C          9.51351        0.13212       -0.19865
C          8.78993        0.11032       -1.39171
C          7.38631        0.06915       -1.37888
C          6.64414        0.04333       -2.56857
C          5.24759        0.00882       -2.54308
H          2.40030        3.25140       -0.78036
H          2.53673        2.47124       -2.23992
H          3.84160        2.55802       -1.22148
H          1.32254        1.11587       -0.65093
H          2.71845        1.24098        0.44932
H          2.66627       -0.08206       -2.33469
H          2.72721       -0.96253       -0.81784
H          4.78771       -0.06067        0.82950
H          6.95143        0.02478        2.01648
H          9.40842        0.11613        1.94975
H         10.60035        0.16353       -0.22191
H          9.33568        0.11994       -2.33349
H          7.15613        0.03348       -3.53014
H          4.71579       -0.03565       -3.49215
