35

N          2.82134        2.82672       -0.04649
C          2.32539        1.42475       -0.06499
C          2.89172        0.66473       -1.26712
C          4.39910        0.59485       -1.28484
C          5.09726       -0.01833       -0.23753
C          6.49155       -0.09107       -0.26342
C          7.22189        0.41761       -1.34314
C          8.69235        0.38536       -1.37393
C          9.43587       -0.57109       -0.79062
C         10.90598       -0.56857       -0.71820
C         11.64886        0.61618       -0.68682
C         13.03107        0.57026       -0.52164
F         13.72489        1.71542       -0.48513
C         13.69859       -0.63910       -0.37576
C         12.97079       -1.82547       -0.39732
C         11.58202       -1.78954       -0.56485
C          6.52322        1.03573       -2.38558
C          5.12591        1.11911       -2.36191
H          2.45933        3.34304        0.76563
H          2.54845        3.34254       -0.89269
H          3.85087        2.85069        0.00781
H          1.23366        1.47624       -0.11367
H          2.61881        0.97782        0.88953
H          2.52832        1.13333       -2.19070
H          2.49979       -0.36002       -1.26763
H          4.57722       -0.47057        0.60481
H          7.00343       -0.56036        0.57689
H          9.16774        1.20623       -1.90593
H          8.96119       -1.42353       -0.30985
H         11.17800        1.59026       -0.76434
H         14.77427       -0.64685       -0.23602
H         13.48059       -2.77872       -0.27501
H         11.03311       -2.73004       -0.56878
H          7.06270        1.44043       -3.24134
H          4.62216        1.57705       -3.21179
