35

N          2.94612       -1.10365       -1.94883
C          2.45613       -0.50008       -0.68144
C          3.02837       -1.23834        0.53134
C          4.53638       -1.21514        0.60734
C          5.23654       -0.00438        0.67577
C          6.63230        0.00396        0.75736
C          7.36034       -1.18972        0.79987
C          8.83010       -1.20123        0.83454
C          9.57639       -0.23831        1.40428
C         11.04446       -0.17928        1.36334
C         11.78090       -0.70587        0.29612
C         13.16104       -0.53854        0.25353
F         13.84844       -1.03779       -0.78206
C         13.83302        0.15408        1.25185
C         13.11245        0.68692        2.31783
C         11.72472        0.52241        2.37149
C          6.65989       -2.39802        0.73505
C          5.26195       -2.41317        0.64776
H          2.56911       -0.60785       -2.76804
H          2.67991       -2.09186       -2.03259
H          3.97479       -1.05654       -2.00653
H          1.36467       -0.57126       -0.70423
H          2.74475        0.55475       -0.70473
H          2.67274       -2.27676        0.51458
H          2.62937       -0.79208        1.45047
H          4.72229        0.95397        0.68861
H          7.14382        0.96478        0.79283
H          9.30463       -2.05212        0.35120
H          9.10647        0.58924        1.93294
H         11.30305       -1.22635       -0.52662
H         14.90833        0.28189        1.18701
H         13.62666        1.23940        3.10066
H         11.17966        0.95617        3.20790
H          7.19683       -3.34641        0.77612
H          4.75648       -3.37709        0.63577
