 xtb: 6.5.1 (fef0646)
          01242315303D

 35 36  0     0  0            999 V2000
    2.8921   -1.3052   -1.8514 N   0  0  0  0  0  0  0  0  0  0  0  0
    2.4781   -0.5667   -0.6336 C   0  0  0  0  0  0  0  0  0  0  0  0
    3.0509   -1.2463    0.6097 C   0  0  0  0  0  0  0  0  0  0  0  0
    4.5550   -1.1786    0.6275 C   0  0  0  0  0  0  0  0  0  0  0  0
    5.2021   -0.0009    0.9891 C   0  0  0  0  0  0  0  0  0  0  0  0
    6.5794    0.0795    0.9948 C   0  0  0  0  0  0  0  0  0  0  0  0
    7.3624   -1.0207    0.6328 C   0  0  0  0  0  0  0  0  0  0  0  0
    8.8137   -0.9982    0.6368 C   0  0  0  0  0  0  0  0  0  0  0  0
    9.5835   -0.0804    1.2377 C   0  0  0  0  0  0  0  0  0  0  0  0
   11.0348   -0.0782    1.2666 C   0  0  0  0  0  0  0  0  0  0  0  0
   11.8085   -0.8644    0.4088 C   0  0  0  0  0  0  0  0  0  0  0  0
   13.1808   -0.8113    0.5072 C   0  0  0  0  0  0  0  0  0  0  0  0
   13.9224   -1.5856   -0.3446 F   0  0  0  0  0  0  0  0  0  0  0  0
   13.8418   -0.0132    1.4207 C   0  0  0  0  0  0  0  0  0  0  0  0
   13.0733    0.7710    2.2666 C   0  0  0  0  0  0  0  0  0  0  0  0
   11.6947    0.7430    2.1866 C   0  0  0  0  0  0  0  0  0  0  0  0
    6.7070   -2.1955    0.2553 C   0  0  0  0  0  0  0  0  0  0  0  0
    5.3279   -2.2735    0.2553 C   0  0  0  0  0  0  0  0  0  0  0  0
    2.5787   -0.8227   -2.7009 H   0  0  0  0  0  0  0  0  0  0  0  0
    2.4969   -2.2527   -1.8438 H   0  0  0  0  0  0  0  0  0  0  0  0
    3.9168   -1.3852   -1.8720 H   0  0  0  0  0  0  0  0  0  0  0  0
    1.3905   -0.5472   -0.5782 H   0  0  0  0  0  0  0  0  0  0  0  0
    2.8482    0.4564   -0.6948 H   0  0  0  0  0  0  0  0  0  0  0  0
    2.7270   -2.2862    0.6522 H   0  0  0  0  0  0  0  0  0  0  0  0
    2.6590   -0.7399    1.4913 H   0  0  0  0  0  0  0  0  0  0  0  0
    4.6217    0.8613    1.2822 H   0  0  0  0  0  0  0  0  0  0  0  0
    7.0543    1.0064    1.2746 H   0  0  0  0  0  0  0  0  0  0  0  0
    9.2810   -1.8350    0.1348 H   0  0  0  0  0  0  0  0  0  0  0  0
    9.1260    0.7240    1.7965 H   0  0  0  0  0  0  0  0  0  0  0  0
   11.3627   -1.5004   -0.3378 H   0  0  0  0  0  0  0  0  0  0  0  0
   14.9187   -0.0095    1.4577 H   0  0  0  0  0  0  0  0  0  0  0  0
   13.5609    1.4069    2.9885 H   0  0  0  0  0  0  0  0  0  0  0  0
   11.1127    1.3602    2.8540 H   0  0  0  0  0  0  0  0  0  0  0  0
    7.2932   -3.0581   -0.0268 H   0  0  0  0  0  0  0  0  0  0  0  0
    4.8562   -3.2073   -0.0127 H   0  0  0  0  0  0  0  0  0  0  0  0
  1  2  1  0  0  0  0
  2  3  1  0  0  0  0
  3  4  1  0  0  0  0
  4  5  4  0  0  0  0
  5  6  4  0  0  0  0
  6  7  4  0  0  0  0
  7  8  1  0  0  0  0
  8  9  2  0  0  0  0
  9 10  1  0  0  0  0
 10 11  4  0  0  0  0
 11 12  4  0  0  0  0
 12 13  1  0  0  0  0
 12 14  4  0  0  0  0
 14 15  4  0  0  0  0
 10 16  4  0  0  0  0
 15 16  4  0  0  0  0
  7 17  4  0  0  0  0
  4 18  4  0  0  0  0
 17 18  4  0  0  0  0
  1 19  1  0  0  0  0
  1 20  1  0  0  0  0
  1 21  1  0  0  0  0
  2 22  1  0  0  0  0
  2 23  1  0  0  0  0
  3 24  1  0  0  0  0
  3 25  1  0  0  0  0
  5 26  1  0  0  0  0
  6 27  1  0  0  0  0
  8 28  1  0  0  0  0
  9 29  1  0  0  0  0
 11 30  1  0  0  0  0
 14 31  1  0  0  0  0
 15 32  1  0  0  0  0
 16 33  1  0  0  0  0
 17 34  1  0  0  0  0
 18 35  1  0  0  0  0
M  CHG  1   1   1
M  END
