50
0.702
N           -7.61507   2.09810   0.18784
C           -8.16686   1.54460  -1.07757
C           -7.61572   0.15118  -1.36580
C           -6.12885   0.12549  -1.40672
C           -5.36881   0.40207  -2.49836
C           -3.97306   0.32143  -2.25651
C           -3.65840  -0.01661  -0.97063
C           -2.32546  -0.17099  -0.44756
C           -2.00989  -0.49911   0.84279
C           -0.61827  -0.59497   1.10734
C           -0.10371  -1.00080   2.44380
C            0.16140  -0.30695   0.00148
C            1.61247  -0.27796  -0.11640
C            2.21081  -0.60515  -1.32180
C            3.59514  -0.59947  -1.51011
C            4.48659  -0.23697  -0.51593
C            5.92186  -0.26554  -0.77719
C            6.90306   0.57455  -0.29256
C            6.67004   1.74925   0.59231
C            8.20871   0.21945  -0.74867
C            8.23027  -0.84608  -1.58159
S            6.64152  -1.45000  -1.83704
C            3.93412   0.12327   0.76411
N            4.59319   0.46411   1.85305
S            3.50348   0.81418   3.02943
N            2.13762   0.51189   2.17022
C            2.48383   0.11257   0.96388
S           -0.86793   0.02593  -1.36499
S           -5.11562  -0.23761  -0.04197
Cl          -7.63691  -0.71902   2.13065
H           -7.72927   1.40669   0.95119
H           -8.06838   2.98141   0.47292
H           -6.60188   2.27200   0.09939
H           -7.92490   2.22136  -1.90584
H           -9.26257   1.51729  -1.02367
H           -8.01338  -0.23754  -2.31123
H           -7.95462  -0.54631  -0.59137
H           -5.79198   0.66165  -3.45700
H           -3.22394   0.50828  -3.01035
H           -2.76126  -0.68034   1.59526
H            0.09124  -0.12408   3.06263
H            0.82903  -1.55809   2.34867
H           -0.82118  -1.63411   2.96734
H            1.57201  -0.88570  -2.14223
H            3.99571  -0.88248  -2.46934
H            6.70069   1.45189   1.64084
H            5.69294   2.19434   0.39900
H            7.42692   2.51869   0.43429
H            9.09346   0.76437  -0.45389
H            9.10872  -1.26794  -2.03382
