16
 xtb: 6.5.1 (fef0646)
N           -0.19784692785003       -1.68629398455837        0.82761371981397
C            0.66937272591447       -1.85824872261665       -0.37126817379845
C            1.08865859863248       -0.52766217444179       -0.97156258221207
S            2.07119733099582        0.49128331129178        0.14140869104773
C            1.00788806500588        1.92458953012343        0.20643117071025
Cl          -2.86632496558786        0.51476520388680       -0.08289506245053
H            0.30066511226456       -1.19918906228021        1.57003295070734
H           -0.54021481896266       -2.58917434410973        1.19028333543818
H           -1.03901375891419       -1.11142493696121        0.59581364392150
H            0.11847964381274       -2.44062090894076       -1.14110820971638
H            1.54171525296555       -2.42509929304094       -0.12313205766008
H            0.17759367097853        0.06660296521096       -1.25242007145842
H            1.65299839413171       -0.63473175956201       -1.87783717609728
H            1.01719291267055        2.36967497879310       -0.84302403771868
H            1.51756126774144        2.70882927395916        0.81555312973801
H            0.05636727038487        1.76365937262945        0.51401051308734
