16
 xtb: 6.5.1 (fef0646)
N           -0.01821143095386       -1.56314085459046       -0.97047691755989
C            0.78598857249218       -1.82258272192290        0.25230555764880
C            1.13961804489843       -0.54069808918377        0.99054929583727
S            2.04962714587040        0.60737516590956       -0.04471228075317
C            0.74546240421425        1.75501065508852       -0.40434464527926
Cl          -2.92249293192034        0.40986357367373        0.17401046721070
H           -0.38071198234800       -2.39449653601211       -1.43155242068704
H            0.41763867132182       -0.94170253486643       -1.62591497837345
H           -0.94244612371411       -1.01917360985669       -0.66873297697262
H            1.67052594210750       -2.32920626605851       -0.07811716751194
H            0.23870273245293       -2.50440642593501        0.91372466519893
H            1.75294696960884       -0.77053885865131        1.86412308845057
H            0.24340551573965       -0.03719923454765        1.36888670568808
H            1.11989361744465        2.53051612130519       -1.08154175176641
H            0.37240315445555        2.22420551359938        0.48922317948708
H           -0.07570875410497        1.24190945114296       -0.91239616396715
