 xtb: 6.5.1 (fef0646)
          02032321493D

 16 14  0     0  0            999 V2000
   -0.2179   -1.6861    0.8166 N   0  0  0  0  0  0  0  0  0  0  0  0
    0.6395   -1.8409   -0.3915 C   0  0  0  0  0  0  0  0  0  0  0  0
    1.0527   -0.4969   -0.9637 C   0  0  0  0  0  0  0  0  0  0  0  0
    2.0311    0.4747    0.1945 S   0  0  0  0  0  0  0  0  0  0  0  0
    1.0915    1.9782    0.1478 C   0  0  0  0  0  0  0  0  0  0  0  0
   -2.8312    0.4553   -0.0715 Cl  0  0  0  0  0  0  0  0  0  0  0  0
    0.2967   -1.1992    1.5662 H   0  0  0  0  0  0  0  0  0  0  0  0
   -0.5425   -2.5905    1.1864 H   0  0  0  0  0  0  0  0  0  0  0  0
   -1.0461   -1.1122    0.5962 H   0  0  0  0  0  0  0  0  0  0  0  0
    0.1072   -2.4311   -1.1485 H   0  0  0  0  0  0  0  0  0  0  0  0
    1.5334   -2.4220   -0.1344 H   0  0  0  0  0  0  0  0  0  0  0  0
    0.1652    0.0773   -1.2405 H   0  0  0  0  0  0  0  0  0  0  0  0
    1.6386   -0.6175   -1.8793 H   0  0  0  0  0  0  0  0  0  0  0  0
    1.0615    2.3763   -0.8639 H   0  0  0  0  0  0  0  0  0  0  0  0
    1.5471    2.7212    0.7984 H   0  0  0  0  0  0  0  0  0  0  0  0
    0.0731    1.8008    0.4865 H   0  0  0  0  0  0  0  0  0  0  0  0
  1  2  1  0  0  0  0
  2  3  1  0  0  0  0
  3  4  1  0  0  0  0
  4  5  1  0  0  0  0
  1  7  1  0  0  0  0
  1  8  1  0  0  0  0
  1  9  1  0  0  0  0
  2 10  1  0  0  0  0
  2 11  1  0  0  0  0
  3 12  1  0  0  0  0
  3 13  1  0  0  0  0
  5 14  1  0  0  0  0
  5 15  1  0  0  0  0
  5 16  1  0  0  0  0
M  END
