 xtb: 6.5.1 (fef0646)
          01232319373D

 21 21  0     0  0            999 V2000
    3.0448   -0.0020    3.6502 N   0  0  0  0  0  0  0  0  0  0  0  0
    2.5030   -0.9612    2.6424 C   0  0  0  0  0  0  0  0  0  0  0  0
    2.9865   -0.5181    1.2599 C   0  0  0  0  0  0  0  0  0  0  0  0
    4.4922   -0.4460    1.2723 C   0  0  0  0  0  0  0  0  0  0  0  0
    5.2592   -1.5731    0.9976 C   0  0  0  0  0  0  0  0  0  0  0  0
    6.6367   -1.5313    1.0927 C   0  0  0  0  0  0  0  0  0  0  0  0
    7.2701   -0.3541    1.4777 C   0  0  0  0  0  0  0  0  0  0  0  0
    8.9840   -0.3012    1.6078 Cl  0  0  0  0  0  0  0  0  0  0  0  0
    6.5203    0.7830    1.7467 C   0  0  0  0  0  0  0  0  0  0  0  0
    5.1386    0.7319    1.6513 C   0  0  0  0  0  0  0  0  0  0  0  0
    3.0656   -0.3936    4.5969 H   0  0  0  0  0  0  0  0  0  0  0  0
    2.4961    0.8653    3.6611 H   0  0  0  0  0  0  0  0  0  0  0  0
    4.0167    0.2289    3.3202 H   0  0  0  0  0  0  0  0  0  0  0  0
    1.4154   -0.9865    2.7015 H   0  0  0  0  0  0  0  0  0  0  0  0
    2.8958   -1.9533    2.8678 H   0  0  0  0  0  0  0  0  0  0  0  0
    2.5561    0.4508    1.0036 H   0  0  0  0  0  0  0  0  0  0  0  0
    2.6459   -1.2411    0.5207 H   0  0  0  0  0  0  0  0  0  0  0  0
    4.7747   -2.4874    0.6907 H   0  0  0  0  0  0  0  0  0  0  0  0
    7.2249   -2.4050    0.8647 H   0  0  0  0  0  0  0  0  0  0  0  0
    7.0148    1.7016    2.0174 H   0  0  0  0  0  0  0  0  0  0  0  0
    4.5759    1.6470    1.7876 H   0  0  0  0  0  0  0  0  0  0  0  0
  1  2  1  0  0  0  0
  2  3  1  0  0  0  0
  3  4  1  0  0  0  0
  4  5  4  0  0  0  0
  5  6  4  0  0  0  0
  6  7  4  0  0  0  0
  7  8  1  0  0  0  0
  7  9  4  0  0  0  0
  4 10  4  0  0  0  0
  9 10  4  0  0  0  0
  1 11  1  0  0  0  0
  1 12  1  0  0  0  0
  1 13  1  0  0  0  0
  2 14  1  0  0  0  0
  2 15  1  0  0  0  0
  3 16  1  0  0  0  0
  3 17  1  0  0  0  0
  5 18  1  0  0  0  0
  6 19  1  0  0  0  0
  9 20  1  0  0  0  0
 10 21  1  0  0  0  0
M  CHG  1   1   1
M  END
