  22

 N         -2.9347791151        1.4481846501        0.7208782092
 C         -1.4988790767        1.0904689411        0.8902297698
 C         -0.8582362048        0.6544986143       -0.4217662312
 C          0.5950068752        0.3101741105       -0.2768573634
 C          0.9829172603       -0.9468930387        0.1655761296
 C          2.3181282464       -1.2550269070        0.3289222926
 C          3.2939775822       -0.3130953678        0.0585679347
 F          4.6052991445       -0.6166095055        0.2181274693
 C          2.9131161261        0.9436346964       -0.3749104707
 C          1.5783049542        1.2540272274       -0.5381067559
 Cl        -4.5193432710       -1.2716608701       -0.7407347273
 H         -3.3813712614        1.7059315791        1.6160803220
 H         -3.4638996403        0.6512039914        0.3190899840
 H         -3.0471140397        2.2458947153        0.0763036053
 H         -1.4012855485        0.2903237347        1.6333911501
 H         -0.9491271719        1.9439248197        1.3050647136
 H         -0.9743770799        1.4469606468       -1.1697736640
 H         -1.3973307272       -0.2079102357       -0.8297305660
 H          0.2273410042       -1.6836716672        0.3833805410
 H          2.6238100741       -2.2294263170        0.6694760330
 H          3.6791551608        1.6715330437       -0.5805054289
 H          1.2886490663        2.2372845471       -0.8701713724
          22
        -34.88821564
 N         -1.8660279262        1.2033127827       -1.3901938684
 C         -1.5840712427        2.2086550175       -0.3286255418
 C         -0.9474455890        1.5727017814        0.9042488184
 C          0.3008065733        0.8074875912        0.5806592114
 C          1.5266137454        1.4518580009        0.4907972081
 C          2.6658306968        0.7511472780        0.1509249108
 C          2.6035871354       -0.6050323369       -0.1130057274
 F          3.7224866764       -1.2903078244       -0.4545825768
 C          1.3834128076       -1.2506135665       -0.0325940955
 C          0.2435166726       -0.5515937908        0.3068739534
 Cl        -3.1911307340       -1.6149285825        0.1809814636
 H         -2.4046476740        1.5993652163       -2.1778703069
 H         -2.4005092470        0.4040839965       -1.0012343731
 H         -0.9891794785        0.8175851315       -1.7725239638
 H         -2.5120426556        2.7252228822       -0.0535660776
 H         -0.9208543200        2.9829646206       -0.7326639905
 H         -1.6653319772        0.8946542555        1.3797587450
 H         -0.7205724412        2.3346263559        1.6593837334
 H          1.5802964139        2.5101824672        0.6863081860
 H          3.6194169240        1.2458911610        0.0819175617
 H          1.3430502131       -2.3052560720       -0.2446546401
 H         -0.7083378890       -1.0554797081        0.3487112907
          22
        -34.88843169
 N         -1.8737194999        1.2014596172       -1.3877620406
 C         -1.5875852514        2.2048304134       -0.3254842481
 C         -0.9468514863        1.5670514862        0.9043343749
 C          0.3022828903        0.8048930105        0.5769076405
 C          1.5271638406        1.4514277916        0.4895609718
 C          2.6682089469        0.7531900583        0.1507118102
 C          2.6087410986       -0.6028421896       -0.1146388931
 F          3.7302709629       -1.2872525717       -0.4487339969
 C          1.3891254526       -1.2501079335       -0.0388210035
 C          0.2473996436       -0.5536038290        0.2998226050
 Cl        -3.1972732627       -1.6117815967        0.1825363869
 H         -2.4128719344        1.5996789822       -2.1740483233
 H         -2.4089947792        0.4027715750       -0.9987209860
 H         -0.9982350105        0.8146318016       -1.7721594306
 H         -2.5145219901        2.7210321856       -0.0462527963
 H         -0.9257393238        2.9798239730       -0.7304640580
 H         -1.6624555002        0.8864656778        1.3796969474
 H         -0.7199445337        2.3276524196        1.6608190295
 H          1.5789549040        2.5095161965        0.6868609381
 H          3.6211647781        1.2496030604        0.0848633492
 H          1.3503537950       -2.3042194528       -0.2538056028
 H         -0.7036613070       -1.0592067757        0.3392666917
