 xtb: 6.5.1 (fef0646)
          01232319363D

 22 21  0     0  0            999 V2000
    1.1500    0.3940    0.1883 N   0  0  0  0  0  0  0  0  0  0  0  0
    2.6056    0.5035    0.1241 C   0  0  0  0  0  0  0  0  0  0  0  0
    3.0678    0.4665   -1.3364 C   0  0  0  0  0  0  0  0  0  0  0  0
    4.5665    0.4073   -1.4076 C   0  0  0  0  0  0  0  0  0  0  0  0
    5.2231   -0.8122   -1.2929 C   0  0  0  0  0  0  0  0  0  0  0  0
    6.6035   -0.8826   -1.3198 C   0  0  0  0  0  0  0  0  0  0  0  0
    7.3391    0.2832   -1.4612 C   0  0  0  0  0  0  0  0  0  0  0  0
    9.0672    0.2064   -1.4964 Cl  0  0  0  0  0  0  0  0  0  0  0  0
    6.7063    1.5094   -1.5768 C   0  0  0  0  0  0  0  0  0  0  0  0
    5.3241    1.5627   -1.5472 C   0  0  0  0  0  0  0  0  0  0  0  0
    0.3741   -2.1393   -1.0802 Cl  0  0  0  0  0  0  0  0  0  0  0  0
    0.8224    0.3878    1.1480 H   0  0  0  0  0  0  0  0  0  0  0  0
    0.7279   -0.9553   -0.4848 H   0  0  0  0  0  0  0  0  0  0  0  0
    0.7069    1.1624   -0.3045 H   0  0  0  0  0  0  0  0  0  0  0  0
    3.0244   -0.3525    0.6572 H   0  0  0  0  0  0  0  0  0  0  0  0
    2.9787    1.4194    0.6032 H   0  0  0  0  0  0  0  0  0  0  0  0
    2.7011    1.3549   -1.8537 H   0  0  0  0  0  0  0  0  0  0  0  0
    2.6339   -0.4143   -1.8093 H   0  0  0  0  0  0  0  0  0  0  0  0
    4.6456   -1.7185   -1.1877 H   0  0  0  0  0  0  0  0  0  0  0  0
    7.1075   -1.8323   -1.2338 H   0  0  0  0  0  0  0  0  0  0  0  0
    7.2891    2.4101   -1.6895 H   0  0  0  0  0  0  0  0  0  0  0  0
    4.8309    2.5193   -1.6410 H   0  0  0  0  0  0  0  0  0  0  0  0
  1  2  1  0  0  0  0
  2  3  1  0  0  0  0
  3  4  1  0  0  0  0
  4  5  4  0  0  0  0
  5  6  4  0  0  0  0
  6  7  4  0  0  0  0
  7  8  1  0  0  0  0
  7  9  4  0  0  0  0
  4 10  4  0  0  0  0
  9 10  4  0  0  0  0
  1 12  1  0  0  0  0
 11 13  1  0  0  0  0
  1 14  1  0  0  0  0
  2 15  1  0  0  0  0
  2 16  1  0  0  0  0
  3 17  1  0  0  0  0
  3 18  1  0  0  0  0
  5 19  1  0  0  0  0
  6 20  1  0  0  0  0
  9 21  1  0  0  0  0
 10 22  1  0  0  0  0
M  END
