21
 xtb: 6.5.1 (fef0646)
N           -1.41871998344052       -2.02474611592307        0.24393005522892
C           -0.08262029465798       -1.74058620510393       -0.36210250896762
C            0.63932709072119       -0.57902887545899        0.31083972139663
C            2.03361306178264       -0.34374029306775       -0.27187179383392
C            2.78546711726953        0.80487348257946        0.40173929885395
C            4.17298160326685        1.01904121805136       -0.18505533069300
Cl          -3.25473679208169        1.33292999576348       -0.07192090369386
H           -2.03159268912982       -1.06318432712006        0.15172435424825
H           -1.40744394404216       -2.15888436730815        1.22755521427998
H           -1.98570871090946       -2.67888901074325       -0.24550104621001
H           -0.20260476600688       -1.50997108017726       -1.43270777275698
H            0.47153356468688       -2.63268190676577       -0.28106631536855
H            0.71161700302216       -0.76037988754932        1.39158007679695
H            0.04742184088338        0.35668685889972        0.23585907163576
H            1.94968757534408       -0.15058299989911       -1.34685531363559
H            2.61386019945652       -1.26720664072930       -0.18956637895109
H            2.85904583515737        0.60814871479836        1.47916261644603
H            2.19507633470619        1.72515464538679        0.32051618268344
H            4.78834961077039        0.12114797520078       -0.08347838375643
H            4.70420757769626        1.83826609451314        0.29776917340180
H            4.11832400658484        1.24625553143787       -1.25361402350728
