16
 xtb: 6.5.1 (fef0646)
O            2.66965390780328        1.50582849932868       -0.39797200120566
C            1.31086573594197        1.57005140749327       -0.00833440939097
C            0.93280997557189        0.51338263689243        1.02536104557366
C            1.30851526817412       -0.89337765120624        0.57586201380674
N            0.66614965706085       -1.28767028743656       -0.71096501005638
Cl          -3.05872502607461       -0.57281209660418       -0.12358837785805
H            3.25250859619334        1.68647241185188        0.36996179386267
H            0.71568450052310        1.44700646118195       -0.92020169045440
H            1.08872272083869        2.58761802191690        0.35094113277008
H           -0.14422843497702        0.58712056115865        1.25008610543621
H            1.44004592648911        0.73377996090084        1.96939094286003
H            1.02492841552250       -1.61543159589722        1.35300612282077
H            2.34420323309667       -0.97847357764875        0.40005540058667
H            0.71408814482801       -2.25812239609113       -0.94481612303417
H            0.86066219214649       -0.69034698082106       -1.47790041797365
H           -0.46180259174618       -1.13672155269253       -0.58003462342110
