28
 xtb: 6.5.1 (fef0646)
N           -1.94192907167135        0.22522545806746        0.63736479546097
C           -1.30347169115709       -0.84958314426374       -0.18268484547217
C           -0.35957390208280       -1.76496288785990        0.60784554603071
C            1.12717162342298       -1.34360109372894        0.61780793442868
C            1.36513572410546        0.06458970580871        1.20751273206076
C            2.86808130435241        0.37993833800970        1.30140228681166
C            3.54230234644787        0.26108291967373       -0.07744066526300
C            3.29712182037845       -1.12608723560422       -0.69791414230045
C            1.79258463816641       -1.43840904693391       -0.77741497483616
Cl          -3.85871451242558        2.10743268822651       -1.04261034553219
H           -2.54421998671717        0.79895850495692        0.15497800071635
H           -1.18788149932959        0.78841152430483        1.13027575809851
H           -2.44996572743636       -0.23612293391469        1.46695200261733
H           -0.77203398194759       -0.41808938357977       -1.00597031235369
H           -2.10072733730966       -1.46679882617732       -0.60611995163248
H           -0.38970304041071       -2.81353832898473        0.20395676262147
H           -0.69440693446324       -1.88242960828517        1.64634198106220
H            1.69936022880543       -2.05982392084185        1.26740505770810
H            0.88206918435993        0.14258080574833        2.18897510746742
H            0.88778719333949        0.78899200677819        0.56110970555083
H            3.35556187535048       -0.32074853719446        1.99892411657836
H            3.03143430751054        1.37567941230626        1.73383839589818
H            4.62101121499997        0.47929695538366       -0.00710355436138
H            3.13817604736136        1.03585037428593       -0.74403346460894
H            3.81111196210864       -1.88552382646430       -0.09461942169183
H            3.77003257723816       -1.18907444138108       -1.69626465735642
H            1.62764831432467       -2.43111568126098       -1.22311317673698
H            1.31711813761110       -0.72798396489494       -1.44951115107791
