16
2.212
N           -0.31561   1.90183   0.38620
C           -1.40690   1.41766  -0.50394
C           -1.99561   0.08441  -0.04240
C           -1.04160  -1.05788  -0.12627
C           -1.42565  -2.31687  -0.03050
Cl           2.44733  -0.20360   0.08825
H            0.02464   2.83865   0.11076
H            0.49959   1.26015   0.36596
H           -0.63566   1.96133   1.36612
H           -1.02915   1.31936  -1.52916
H           -2.19508   2.18025  -0.55242
H           -2.88886  -0.15640  -0.63395
H           -2.34726   0.17999   0.99239
H            0.00817  -0.83259  -0.23432
H           -2.46067  -2.57106   0.09933
H           -0.72580  -3.13100  -0.07723
