16
 xtb: 6.5.1 (fef0646)
N           -0.24845359071991        1.87058943510267        0.35009434526249
C           -1.37463003201873        1.39654475546503       -0.50451674832553
C           -1.97874426540272        0.08158643995691       -0.00857169275244
C           -1.03894657093666       -1.07256235929251       -0.06811953290536
C           -1.45324840495091       -2.33095818014137       -0.08748222717820
Cl           2.37910603236666       -0.14487132552855        0.09464161987241
H            0.03917319432786        2.83098954836483        0.09968116152643
H            0.52145640693551        1.25219377037965        0.34824114030004
H           -0.60875082162878        1.95112154555970        1.35928729566810
H           -1.02719038867608        1.30695242850380       -1.53148062894373
H           -2.18214281911791        2.17804917045321       -0.55069936190897
H           -2.88688316505214       -0.15832880567431       -0.61918150093909
H           -2.33777832010715        0.18817679531575        1.00308992934326
H            0.01332868977166       -0.83972201812265       -0.18182976104832
H           -2.47422995478856       -2.57276191469257        0.04327349515546
H           -0.73628363870300       -3.13778879094218       -0.08497009734004
