37
2.642
N            5.04616  -1.03019  -0.43907
C            3.67916  -0.48128  -0.66213
C            3.12892   0.20812   0.58092
O            1.82662   0.75827   0.38664
C            0.77791  -0.14681   0.37578
C           -0.51365   0.36726   0.08183
C           -0.70889   1.74720  -0.19275
C           -1.93612   2.24549  -0.47756
C           -1.62978  -0.49977   0.05550
C           -1.46941  -1.87980   0.32279
C           -0.18574  -2.36029   0.61174
C            0.89819  -1.52162   0.63696
C           -2.61421  -2.72831   0.28875
C           -3.84426  -2.23756   0.00568
C           -4.04160  -0.84987  -0.27007
C           -5.29789  -0.31655  -0.56679
C           -5.44934   1.03007  -0.82897
C           -4.36342   1.88087  -0.80400
C           -3.08479   1.39875  -0.51260
C           -2.92201   0.01787  -0.24273
Cl           7.04891   1.65853   0.61523
H            5.43071  -1.46740  -1.28704
H            5.04217  -1.73589   0.30873
H            5.69227  -0.27665  -0.14856
H            3.00149  -1.28027  -0.98051
H            3.69227   0.23326  -1.49277
H            3.78141   1.04282   0.86133
H            3.11542  -0.45791   1.44938
H            0.15158   2.39381  -0.16898
H           -2.06169   3.29478  -0.68303
H           -0.05995  -3.40994   0.81635
H            1.86374  -1.93364   0.86531
H           -2.48360  -3.77723   0.49375
H           -4.69787  -2.89327  -0.01593
H           -6.15207  -0.97164  -0.58927
H           -6.42765   1.42167  -1.05622
H           -4.49237   2.92975  -1.01025
