36
 xtb: 6.5.1 (fef0646)
N           -6.32728245837898        0.69153895943886       -0.95398073566811
C           -4.84226862406615        0.82263510904624       -0.98585016908251
C           -4.20603699732958        0.58004412685171        0.37818759622043
C           -2.70978646735780        0.68738331104348        0.34175308086771
C           -2.08435361267049        1.91516724569948        0.50178881729046
C           -0.71345186309386        2.02381610727169        0.42119060357716
C            0.08265745109970        0.90502379593055        0.17575886386370
C            1.52936586658411        1.05711786425890        0.08764571146123
C            2.41333746579023        0.04726845843421        0.07313202328116
C            3.86015720344238        0.19155344800414       -0.01373858903110
C            4.66238841358367       -0.94947080594653        0.00596936893699
C            6.03916084653798       -0.86687015739434       -0.06517700669962
F            6.79853258493256       -1.99766471128804       -0.04286216377920
C            6.63602161189113        0.37780994432002       -0.16383771729189
C            5.86366949567137        1.52080719218877       -0.18769819401685
C            4.49071474363542        1.43313851932109       -0.11264685073852
C           -0.55398142226718       -0.32493216256981        0.00674252412610
C           -1.92596089181383       -0.42780504849759        0.08589330819523
Cl          -6.93652282804310       -2.61908857231914        0.31645310682246
H           -6.75297608386318        0.79584824521722       -1.88137530570445
H           -6.75027095007005        1.34436386272016       -0.30940408174874
H           -6.58442176717216       -0.27900560794294       -0.61830319794387
H           -4.57799452207994        1.80690688310788       -1.36175738074461
H           -4.42090572435679        0.10585085182730       -1.71334477303454
H           -4.49424169656116       -0.40096045078147        0.75973102164380
H           -4.60881839166198        1.30181253305031        1.09877489817118
H           -2.68317352244681        2.78902282141343        0.70537765914530
H           -0.23896528251180        2.97746323112546        0.58597335665147
H            1.90118737944211        2.06098606960067        0.12748414487404
H            2.04123846959374       -0.96592261122153        0.08108668749374
H            4.21299132907447       -1.92148895730120        0.09922062105827
H            7.70676872693862        0.43829425778749       -0.22879811850320
H            6.33057677256566        2.48567899576105       -0.30202828239432
H            3.89565467963642        2.32846043543051       -0.17720553764913
H            0.02642455021982       -1.20224879096675       -0.20856935270229
H           -2.40854563390125       -1.37560358392207       -0.07599615966025
