36
 xtb: 6.5.1 (fef0646)
N           -5.52123677637365       -0.67800530367597       -0.22721048979492
C           -5.62568219357759        0.51742797630046        0.65931904605006
C           -4.81606930484782        1.70343305320653        0.14011052076114
C           -3.34977726286796        1.40918698595384        0.02814009800251
C           -2.55631612106621        1.34251226872243        1.16398574737692
C           -1.21177439276097        1.05545801493232        1.07305402162857
C           -0.61073843508232        0.82422647775074       -0.16488148664546
C            0.80455424497245        0.50928399321119       -0.30689190343076
C            1.69122716816852        0.44078652353558        0.69858343347898
C            3.10287887453587        0.11405428213480        0.54764157460654
C            3.61976705236864       -0.42976595952457       -0.62802175163935
C            4.95897014270907       -0.74766905729634       -0.74510723490119
F            5.43973430597474       -1.28305411440108       -1.90221161700185
C            5.80609721638398       -0.51399868468031        0.32412798016506
C            5.31667983007777        0.02224068634682        1.49732457104884
C            3.97896856462671        0.33030897242686        1.61200285355954
C           -1.41637166390847        0.89106800128421       -1.30257131689164
C           -2.76104912862990        1.17404583246830       -1.20581890016486
Cl          -2.40090937948222       -2.17710657537978       -0.16895839229261
H           -4.57032471944630       -1.01245006847121       -0.26742682112060
H           -5.81634563887172       -0.41793285493144       -1.19244994511338
H           -6.14037747766166       -1.42810269985259        0.09226126302576
H           -5.29430728669053        0.26058052215566        1.66613071164239
H           -6.68556088443524        0.82340873048094        0.77134332977457
H           -4.94664277921018        2.58778498216007        0.79942821397200
H           -5.19384066304725        2.02639131344624       -0.83239373097560
H           -3.01207379222823        1.47889453740147        2.13454643738581
H           -0.63315190002191        0.94445322964119        1.97607155546289
H            1.12969909604946        0.25331730970705       -1.30219046152606
H            1.37168778814315        0.72628443050658        1.68165550047487
H            2.97607040130657       -0.64483728414870       -1.45945550972115
H            6.84656640907448       -0.76173597822374        0.22589263624977
H            5.98418887340373        0.22335346407048        2.31929831479092
H            3.60180994489837        0.78245568336201        2.51581775112833
H           -0.97487110708226        0.73292574914210       -2.26819964953500
H           -3.36422762681968        1.25717508904944       -2.09171651152874
