25
 xtb: 6.5.1 (fef0646)
N           -1.65401045086659       -1.74786046258082       -0.42624929390606
C           -0.40153852045689       -1.81185217037935        0.39196408439052
C            0.46080237520293       -0.55187990383393        0.22819680371773
C            1.07084573914079       -0.43642834663983       -1.18776720981550
C            1.88570548418755        0.85931443347821       -1.34453041645859
C            2.98787567524719        0.95345539044234       -0.27467017999306
C            2.39682585017475        0.83075639543919        1.14088013870905
C            1.58344583572005       -0.46699293648871        1.28928614510095
Cl          -3.10822233337684        1.01157803630025        0.10430924299561
H           -2.20530482252994       -2.65122230858884       -0.25256338107125
H           -1.36072502348178       -1.87499404694602       -1.45378659113612
H           -2.14896917728878       -0.97870147733119       -0.29225346479629
H            0.25057083675822       -2.71533301596043        0.17008996980675
H           -0.65652512774295       -1.94957834959482        1.44919461654737
H           -0.20595923266326        0.29667029014834        0.37322430058519
H            0.28816263962016       -0.50658754209248       -1.95113420441177
H            1.72403714870387       -1.30657562019463       -1.36715920168599
H            1.20849895645809        1.71680963969261       -1.25060977429772
H            2.31114290450912        0.93057214328849       -2.35347903550916
H            3.55070425404715        1.89111609197089       -0.38231199586399
H            3.71643015450437        0.15291462176246       -0.43259544242703
H            1.73750947173434        1.69123652783956        1.33462542881159
H            3.18371586492025        0.89187901869387        1.90071967759321
H            1.16232929152972       -0.55630342520820        2.29885405795869
H            2.25233109983381       -1.33005615523771        1.17758067536563
