25
 xtb: 6.5.1 (fef0646)
N           -1.50808337242249       -2.00384185362744       -0.49235211513374
C           -0.30947076478883       -1.91499876636586        0.39126606986719
C            0.47595200185650       -0.60661956465938        0.21941517871088
C            1.09380777458698       -0.47392629099425       -1.19220525697249
C            1.87071384299368        0.84598309809195       -1.34745002844579
C            2.96159274826572        0.97789115815581       -0.26993364624338
C            2.35914147987913        0.85173690140465        1.14021259955001
C            1.58383422386923       -0.46874447789366        1.29216121490395
Cl          -3.25556576827159        1.31916843725189        0.16073375709152
H           -2.14599615099172       -2.73627629191903       -0.27450384187930
H           -1.30621155466278       -1.94106047244497       -1.46832037812198
H           -2.13175030558239       -1.06867853010690       -0.32142417624785
H            0.29820821231981       -2.73442200848752        0.18792170743339
H           -0.64228850764516       -1.97442477548045        1.44584900239025
H           -0.21373220158575        0.27184362872043        0.36747211067596
H            0.29742208888414       -0.52410370392741       -1.95456845873419
H            1.73893197762083       -1.31169499404286       -1.36652086119450
H            1.19643361202393        1.70708951806591       -1.25390490360387
H            2.30810465655509        0.92899469534613       -2.35358281807310
H            3.53598171845828        1.90235820815915       -0.38166765548862
H            3.71549981879193        0.16532261998973       -0.42734953408564
H            1.71855003113630        1.69212317191422        1.32990066387610
H            3.16964279246018        0.90665049223176        1.90304924091859
H            1.15993031463837       -0.55742789902120        2.29852141243712
H            2.26094112604124       -1.32469127760758        1.18345326594093
