13
0.0
N            0.15375  -1.33379  -0.83995
C            0.98389  -1.44792   0.39064
C            1.32338  -0.08061   0.98338
C            2.09377   0.73455   0.12107
N            2.71881   1.38922  -0.59826
Cl          -2.75265   0.46552   0.03262
H           -0.72563  -0.83123  -0.63335
H           -0.08819  -2.25291  -1.23151
H            0.65029  -0.79751  -1.56160
H            1.90984  -1.98560   0.15587
H            0.45707  -2.06468   1.12914
H            1.85959  -0.19911   1.93297
H            0.39563   0.44785   1.23087
