13
0.083
N           -0.17418  -1.85473  -0.02899
C            1.01971  -1.06186  -0.43619
C            1.27753   0.12373   0.49004
C            2.39962   0.90499   0.12306
N            3.31798   1.53538  -0.18712
Cl          -2.92340   0.36532   0.01586
H           -0.35680  -2.63680  -0.67525
H           -1.01186  -1.25511  -0.01297
H           -0.05370  -2.24216   0.91453
H            0.89037  -0.70155  -1.46345
H            1.90406  -1.70916  -0.46153
H            1.40973  -0.23606   1.51665
H            0.38818   0.76354   0.51928
