13
1.929
N            0.06525  -0.42984  -0.55427
C            0.70635  -0.44882   0.78942
C            2.22956  -0.53951   0.70341
C            2.82515   0.56467   0.04941
N            3.29421   1.47204  -0.49219
Cl          -3.43898  -0.14916  -0.16368
H           -0.96435  -0.34976  -0.48472
H            0.28110  -1.28763  -1.07700
H            0.40694   0.36624  -1.10646
H            0.30400  -1.28604   1.37277
H            0.42575   0.45893   1.33643
H            2.51035  -1.45658   0.17332
H            2.66275  -0.63305   1.70682
