48
 xtb: 6.5.1 (fef0646)
N           -7.51955464407490        1.72352856348688       -0.59814773343533
C           -8.01174352332585        0.57875937924729       -1.41356596395736
C           -7.39513150709603       -0.73867487942323       -0.94773976921895
C           -5.90791231418651       -0.71141512410631       -0.96928580636146
C           -5.13259123885270       -1.06971523715431       -2.02597377927469
C           -3.74102020069489       -0.92761848643614       -1.78763650970159
C           -3.44402886599346       -0.45581805728291       -0.54019537207278
C           -2.12009445986364       -0.21310197750794       -0.02853915172691
C           -1.82078534442423        0.21993155172261        1.23355466667802
C           -0.43371782902870        0.38008583564319        1.49170106672371
C            0.07316925047162        0.78925166914786        2.83063285651790
C            0.35437965112272        0.09126845894007        0.39237942316522
C            1.79715755204104        0.17241926094731        0.26928911413663
C            2.64605224369744        1.13923250121833        0.77379511557491
C            2.20973562488391        2.28112380644502        1.47309289386549
N            1.81308944692464        3.20377197900545        2.05648437575707
C            4.03146155463654        0.89516540938348        0.46991573598817
C            5.05225544196589        1.75891382128677        0.90848848016453
N            5.91858650151325        2.44786255849508        1.25870224058278
C            4.24772979750646       -0.24516728507689       -0.27988359906224
C            5.52642613999191       -0.74982675049776       -0.73298786708674
C            5.74388295543692       -1.89449874790054       -1.47196426873415
C            4.68610218395762       -2.82642278714582       -1.95180141580787
C            7.12437304769516       -2.12380821699282       -1.75630708114654
C            7.95128891052160       -1.18161026019719       -1.25539058508585
S            7.06269223756718        0.03338741176537       -0.42642569966830
S            2.72209970837267       -1.00097517657672       -0.61028111883474
S           -0.65456338396642       -0.43586478608572       -0.92736076408751
S           -4.91490376882986       -0.16486974275007        0.34645448675397
Cl          -7.45071926116119        0.41312028815060        2.44894955485191
H           -6.51636783979650        1.89533512326653       -0.82608297545934
H           -7.60366809047468        1.52759863857941        0.37096772090274
H           -8.03345663025154        2.60147883854177       -0.84767881294509
H           -7.79008877877107        0.71678306594709       -2.48402571040409
H           -9.11139209525252        0.51290070314517       -1.35453034031116
H           -7.75141775708685       -1.58933308043634       -1.53407386271787
H           -7.71858296334221       -0.94375783676291        0.09019067429906
H           -5.54707874301744       -1.36431789873432       -2.97629778558247
H           -2.98681555177208       -1.10397952167982       -2.53693389845142
H           -2.57933798927064        0.42586931005687        1.97315231340904
H            1.07912114863728        0.42059883519182        3.00225872295653
H           -0.56927918444885        0.42388407504368        3.62407038950285
H            0.10425717338871        1.88994398192409        2.90812958928280
H            3.97876084272371       -2.29617894740498       -2.61230937744960
H            4.12418700359265       -3.24365339326712       -1.12816312055170
H            5.11037706715783       -3.64517096668823       -2.53347515704981
H            7.46344225217361       -2.97465777939911       -2.33225767761002
H            9.02037215589114       -1.18107928081446       -1.34874412559305
