 xtb: 6.5.1 (fef0646)
          01242310063D

 48 50  0     0  0            999 V2000
   -7.5216    1.7308   -0.6558 N   0  0  0  0  0  0  0  0  0  0  0  0
   -8.0198    0.5598   -1.4257 C   0  0  0  0  0  0  0  0  0  0  0  0
   -7.3947   -0.7428   -0.9324 C   0  0  0  0  0  0  0  0  0  0  0  0
   -5.9077   -0.7065   -0.9643 C   0  0  0  0  0  0  0  0  0  0  0  0
   -5.1367   -1.0200   -2.0377 C   0  0  0  0  0  0  0  0  0  0  0  0
   -3.7450   -0.8769   -1.8017 C   0  0  0  0  0  0  0  0  0  0  0  0
   -3.4447   -0.4481   -0.5401 C   0  0  0  0  0  0  0  0  0  0  0  0
   -2.1199   -0.2104   -0.0279 C   0  0  0  0  0  0  0  0  0  0  0  0
   -1.8208    0.2274    1.2326 C   0  0  0  0  0  0  0  0  0  0  0  0
   -0.4338    0.3897    1.4901 C   0  0  0  0  0  0  0  0  0  0  0  0
    0.0722    0.8079    2.8265 C   0  0  0  0  0  0  0  0  0  0  0  0
    0.3546    0.0959    0.3923 C   0  0  0  0  0  0  0  0  0  0  0  0
    1.7974    0.1758    0.2690 C   0  0  0  0  0  0  0  0  0  0  0  0
    2.6474    1.1439    0.7693 C   0  0  0  0  0  0  0  0  0  0  0  0
    2.2126    2.2890    1.4643 C   0  0  0  0  0  0  0  0  0  0  0  0
    1.8172    3.2144    2.0442 N   0  0  0  0  0  0  0  0  0  0  0  0
    4.0325    0.8970    0.4666 C   0  0  0  0  0  0  0  0  0  0  0  0
    5.0540    1.7617    0.9015 C   0  0  0  0  0  0  0  0  0  0  0  0
    5.9208    2.4516    1.2490 N   0  0  0  0  0  0  0  0  0  0  0  0
    4.2476   -0.2467   -0.2784 C   0  0  0  0  0  0  0  0  0  0  0  0
    5.5257   -0.7539   -0.7303 C   0  0  0  0  0  0  0  0  0  0  0  0
    5.7405   -1.8923   -1.4795 C   0  0  0  0  0  0  0  0  0  0  0  0
    4.6804   -2.8165   -1.9690 C   0  0  0  0  0  0  0  0  0  0  0  0
    7.1209   -2.1252   -1.7612 C   0  0  0  0  0  0  0  0  0  0  0  0
    7.9506   -1.1934   -1.2460 C   0  0  0  0  0  0  0  0  0  0  0  0
    7.0657    0.0070   -0.3965 S   0  0  0  0  0  0  0  0  0  0  0  0
    2.7206   -1.0031   -0.6024 S   0  0  0  0  0  0  0  0  0  0  0  0
   -0.6539   -0.4386   -0.9237 S   0  0  0  0  0  0  0  0  0  0  0  0
   -4.9100   -0.2220    0.3732 S   0  0  0  0  0  0  0  0  0  0  0  0
   -7.4431    0.3864    2.4847 Cl  0  0  0  0  0  0  0  0  0  0  0  0
   -6.5146    1.8886   -0.8372 H   0  0  0  0  0  0  0  0  0  0  0  0
   -7.6129    1.5468    0.3555 H   0  0  0  0  0  0  0  0  0  0  0  0
   -8.0277    2.6034   -0.8785 H   0  0  0  0  0  0  0  0  0  0  0  0
   -7.7953    0.7034   -2.4892 H   0  0  0  0  0  0  0  0  0  0  0  0
   -9.1135    0.5080   -1.3546 H   0  0  0  0  0  0  0  0  0  0  0  0
   -7.7516   -1.5947   -1.5235 H   0  0  0  0  0  0  0  0  0  0  0  0
   -7.7158   -0.9387    0.0967 H   0  0  0  0  0  0  0  0  0  0  0  0
   -5.5491   -1.3416   -2.9822 H   0  0  0  0  0  0  0  0  0  0  0  0
   -2.9887   -1.0804   -2.5442 H   0  0  0  0  0  0  0  0  0  0  0  0
   -2.5794    0.4291    1.9725 H   0  0  0  0  0  0  0  0  0  0  0  0
    1.0789    0.4266    3.0019 H   0  0  0  0  0  0  0  0  0  0  0  0
   -0.5696    0.4307    3.6235 H   0  0  0  0  0  0  0  0  0  0  0  0
    0.1038    1.8955    2.9049 H   0  0  0  0  0  0  0  0  0  0  0  0
    3.9775   -2.2911   -2.6160 H   0  0  0  0  0  0  0  0  0  0  0  0
    4.1221   -3.2425   -1.1343 H   0  0  0  0  0  0  0  0  0  0  0  0
    5.1082   -3.6412   -2.5404 H   0  0  0  0  0  0  0  0  0  0  0  0
    7.4619   -2.9739   -2.3357 H   0  0  0  0  0  0  0  0  0  0  0  0
    9.0203   -1.1861   -1.3442 H   0  0  0  0  0  0  0  0  0  0  0  0
  1  2  1  0  0  0  0
  2  3  1  0  0  0  0
  3  4  1  0  0  0  0
  4  5  2  0  0  0  0
  5  6  4  0  0  0  0
  6  7  2  0  0  0  0
  7  8  1  0  0  0  0
  8  9  2  0  0  0  0
  9 10  4  0  0  0  0
 10 11  1  0  0  0  0
 10 12  4  0  0  0  0
 12 13  1  0  0  0  0
 13 14  4  0  0  0  0
 14 15  1  0  0  0  0
 15 16  3  0  0  0  0
 14 17  1  0  0  0  0
 17 18  1  0  0  0  0
 18 19  3  0  0  0  0
 17 20  4  0  0  0  0
 20 21  1  0  0  0  0
 21 22  4  0  0  0  0
 22 23  1  0  0  0  0
 22 24  4  0  0  0  0
 24 25  2  0  0  0  0
 21 26  1  0  0  0  0
 25 26  1  0  0  0  0
 13 27  1  0  0  0  0
 20 27  1  0  0  0  0
  8 28  1  0  0  0  0
 12 28  1  0  0  0  0
  4 29  1  0  0  0  0
  7 29  1  0  0  0  0
  1 31  1  0  0  0  0
  1 32  1  0  0  0  0
  1 33  1  0  0  0  0
  2 34  1  0  0  0  0
  2 35  1  0  0  0  0
  3 36  1  0  0  0  0
  3 37  1  0  0  0  0
  5 38  1  0  0  0  0
  6 39  1  0  0  0  0
  9 40  1  0  0  0  0
 11 41  1  0  0  0  0
 11 42  1  0  0  0  0
 11 43  1  0  0  0  0
 23 44  1  0  0  0  0
 23 45  1  0  0  0  0
 23 46  1  0  0  0  0
 24 47  1  0  0  0  0
 25 48  1  0  0  0  0
M  END
