  16

 N          2.1947800000        0.0163100000       -0.2127900000
 C          0.7678700000        0.0024700000       -0.2403800000
 C          0.0868500000       -1.2094600000       -0.2024000000
 C         -1.3076600000       -1.2072200000       -0.1537400000
 C         -2.0042300000        0.0026100000       -0.1522300000
 C         -1.3114900000        1.2121900000       -0.2039700000
 C          0.0834600000        1.2164500000       -0.2494400000
 Cl         3.4321100000        0.8767500000        2.2192200000
 H          2.6262800000       -0.9034600000       -0.1009200000
 H          2.5096400000        0.4857600000        0.6867300000
 H          2.6336600000        0.5464300000       -0.9605900000
 H          0.6153700000       -2.1584400000       -0.1754100000
 H         -1.8535100000       -2.1468100000       -0.0960500000
 H         -3.0895400000        0.0030000000       -0.0898800000
 H         -1.8572700000        2.1537800000       -0.1832700000
 H          0.6150600000        2.1635600000       -0.2494000000
