18

N          2.88502       -0.56202       -1.22821
C          2.47766        0.08565        0.04879
C          3.00859       -0.69981        1.24993
C          4.50863       -0.76305        1.25978
C          5.40012        0.11685        1.84018
C          6.75436       -0.27995        1.64249
C          6.85301       -1.44462        0.91520
S          5.32125       -2.05708        0.47835
H          2.53017       -0.05329       -2.04828
H          2.55359       -1.53399       -1.28832
H          3.91291       -0.59495       -1.30811
H          1.38488        0.11671        0.04972
H          2.87006        1.10701        0.01919
H          2.58286       -1.71114        1.25088
H          2.66171       -0.21845        2.17242
H          5.10796        0.99980        2.39956
H          7.61620        0.25415        2.02746
H          7.75618       -1.97187        0.63343
