 xtb: 6.5.1 (fef0646)
          01242314583D

 27 28  0     0  0            999 V2000
    3.3889   -0.7605    0.7630 N   0  0  0  0  0  0  0  0  0  0  0  0
    2.3857   -0.0332   -0.0732 C   0  0  0  0  0  0  0  0  0  0  0  0
    1.0459   -0.7534    0.0209 C   0  0  0  0  0  0  0  0  0  0  0  0
    2.8758    0.0539   -1.4994 C   0  0  0  0  0  0  0  0  0  0  0  0
    3.1634   -1.1236   -2.2206 C   0  0  0  0  0  0  0  0  0  0  0  0
    3.5989   -1.0598   -3.5129 C   0  0  0  0  0  0  0  0  0  0  0  0
    3.0299    1.2716   -2.1083 C   0  0  0  0  0  0  0  0  0  0  0  0
    3.4744    1.3711   -3.4425 C   0  0  0  0  0  0  0  0  0  0  0  0
    3.7704    0.1822   -4.1596 C   0  0  0  0  0  0  0  0  0  0  0  0
    4.2209    0.2805   -5.4918 C   0  0  0  0  0  0  0  0  0  0  0  0
    4.3715    1.5020   -6.0871 C   0  0  0  0  0  0  0  0  0  0  0  0
    4.0780    2.6783   -5.3782 C   0  0  0  0  0  0  0  0  0  0  0  0
    3.6393    2.6157   -4.0851 C   0  0  0  0  0  0  0  0  0  0  0  0
    4.2956   -0.2792    0.7461 H   0  0  0  0  0  0  0  0  0  0  0  0
    3.5211   -1.7120    0.3990 H   0  0  0  0  0  0  0  0  0  0  0  0
    3.0625   -0.8277    1.7346 H   0  0  0  0  0  0  0  0  0  0  0  0
    2.2820    0.9785    0.3263 H   0  0  0  0  0  0  0  0  0  0  0  0
    1.1169   -1.7711   -0.3509 H   0  0  0  0  0  0  0  0  0  0  0  0
    0.3087   -0.2335   -0.5834 H   0  0  0  0  0  0  0  0  0  0  0  0
    0.6848   -0.7709    1.0451 H   0  0  0  0  0  0  0  0  0  0  0  0
    3.0256   -2.0928   -1.7670 H   0  0  0  0  0  0  0  0  0  0  0  0
    3.8180   -1.9619   -4.0646 H   0  0  0  0  0  0  0  0  0  0  0  0
    2.8073    2.1858   -1.5780 H   0  0  0  0  0  0  0  0  0  0  0  0
    4.4453   -0.6256   -6.0362 H   0  0  0  0  0  0  0  0  0  0  0  0
    4.7180    1.5721   -7.1078 H   0  0  0  0  0  0  0  0  0  0  0  0
    4.2039    3.6335   -5.8663 H   0  0  0  0  0  0  0  0  0  0  0  0
    3.4131    3.5214   -3.5415 H   0  0  0  0  0  0  0  0  0  0  0  0
  1  2  1  0  0  0  0
  2  3  1  0  0  0  0
  2  4  1  0  0  0  0
  4  5  4  0  0  0  0
  5  6  2  0  0  0  0
  4  7  2  0  0  0  0
  7  8  4  0  0  0  0
  6  9  4  0  0  0  0
  8  9  4  0  0  0  0
  9 10  4  0  0  0  0
 10 11  2  0  0  0  0
 11 12  4  0  0  0  0
  8 13  4  0  0  0  0
 12 13  2  0  0  0  0
  1 14  1  0  0  0  0
  1 15  1  0  0  0  0
  1 16  1  0  0  0  0
  2 17  1  0  0  0  0
  3 18  1  0  0  0  0
  3 19  1  0  0  0  0
  3 20  1  0  0  0  0
  5 21  1  0  0  0  0
  6 22  1  0  0  0  0
  7 23  1  0  0  0  0
 10 24  1  0  0  0  0
 11 25  1  0  0  0  0
 12 26  1  0  0  0  0
 13 27  1  0  0  0  0
M  CHG  1   1   1
M  END
