 xtb: 6.5.1 (fef0646)
          01232318363D

 15 14  0     0  0            999 V2000
    2.8879   -1.2451   -0.1484 O   0  0  0  0  0  0  0  0  0  0  0  0
    2.4071    0.0824    0.0744 C   0  0  0  0  0  0  0  0  0  0  0  0
    2.9291    0.9883   -1.0409 C   0  0  0  0  0  0  0  0  0  0  0  0
    4.4519    1.0372   -1.0602 C   0  0  0  0  0  0  0  0  0  0  0  0
    4.9641   -0.3214   -1.3985 N   0  0  0  0  0  0  0  0  0  0  0  0
    2.4838   -1.8500    0.4823 H   0  0  0  0  0  0  0  0  0  0  0  0
    2.7544    0.4428    1.0500 H   0  0  0  0  0  0  0  0  0  0  0  0
    1.3141    0.0904    0.0682 H   0  0  0  0  0  0  0  0  0  0  0  0
    2.5370    1.9915   -0.8835 H   0  0  0  0  0  0  0  0  0  0  0  0
    2.5558    0.6291   -2.0009 H   0  0  0  0  0  0  0  0  0  0  0  0
    4.8297    1.3113   -0.0738 H   0  0  0  0  0  0  0  0  0  0  0  0
    4.8127    1.7654   -1.7873 H   0  0  0  0  0  0  0  0  0  0  0  0
    4.3397   -0.9854   -0.8519 H   0  0  0  0  0  0  0  0  0  0  0  0
    5.9507   -0.4453   -1.1573 H   0  0  0  0  0  0  0  0  0  0  0  0
    4.8354   -0.5227   -2.3951 H   0  0  0  0  0  0  0  0  0  0  0  0
  1  2  1  0  0  0  0
  2  3  1  0  0  0  0
  3  4  1  0  0  0  0
  4  5  1  0  0  0  0
  1  6  1  0  0  0  0
  2  7  1  0  0  0  0
  2  8  1  0  0  0  0
  3  9  1  0  0  0  0
  3 10  1  0  0  0  0
  4 11  1  0  0  0  0
  4 12  1  0  0  0  0
  5 13  1  0  0  0  0
  5 14  1  0  0  0  0
  5 15  1  0  0  0  0
M  CHG  1   1   1
M  END
