18
 xtb: 6.5.1 (fef0646)
N           -2.68316047310646        0.77709361935267       -0.22509892510630
C           -2.28745077193408       -0.47155109533393        0.49849612011492
C           -1.20537977737135       -1.27611963220155       -0.23129134426278
C            0.14578365143324       -0.66492380856594       -0.10946388055516
C            1.36041961594378       -1.33631435616755       -0.05985126295522
C            2.47107819989331       -0.49135552672982        0.06393601437441
C            2.14649118671797        0.85077220967642        0.10034810525420
S            0.44560822514159        1.03244438699879        0.00479513376405
H           -3.13125981452359        0.58934570464763       -1.11303778815692
H           -1.81720629557376        1.34994203576475       -0.40231051730127
H           -3.30821375546191        1.36213730336858        0.36731434151100
H           -3.21147018256542       -1.09263973603104        0.59408843301671
H           -1.97939117478501       -0.25323662075073        1.51231510224318
H           -1.45165245681995       -1.38617457898300       -1.27980928483662
H           -1.15918917768401       -2.29759337514585        0.18319233441821
H            1.43396764070665       -2.41160963208825       -0.09988087553678
H            3.48742957397303       -0.85647931620897        0.10465400836801
H            2.84221556777225        1.66534163935974        0.17053060923461
