 xtb: 6.5.1 (fef0646)
          01242317073D

 18 18  0     0  0            999 V2000
   -2.6596    0.7918   -0.2022 N   0  0  0  0  0  0  0  0  0  0  0  0
   -2.3120   -0.4873    0.4876 C   0  0  0  0  0  0  0  0  0  0  0  0
   -1.2040   -1.2800   -0.2138 C   0  0  0  0  0  0  0  0  0  0  0  0
    0.1433   -0.6622   -0.0965 C   0  0  0  0  0  0  0  0  0  0  0  0
    1.3575   -1.3356   -0.0513 C   0  0  0  0  0  0  0  0  0  0  0  0
    2.4708   -0.4925    0.0511 C   0  0  0  0  0  0  0  0  0  0  0  0
    2.1474    0.8502    0.0857 C   0  0  0  0  0  0  0  0  0  0  0  0
    0.4476    1.0357   -0.0114 S   0  0  0  0  0  0  0  0  0  0  0  0
   -2.9862    0.6128   -1.1581 H   0  0  0  0  0  0  0  0  0  0  0  0
   -1.8425    1.4081   -0.2628 H   0  0  0  0  0  0  0  0  0  0  0  0
   -3.3994    1.2990    0.2975 H   0  0  0  0  0  0  0  0  0  0  0  0
   -3.2201   -1.0979    0.5663 H   0  0  0  0  0  0  0  0  0  0  0  0
   -2.0057   -0.2704    1.5176 H   0  0  0  0  0  0  0  0  0  0  0  0
   -1.4487   -1.3929   -1.2749 H   0  0  0  0  0  0  0  0  0  0  0  0
   -1.1577   -2.2970    0.1925 H   0  0  0  0  0  0  0  0  0  0  0  0
    1.4321   -2.4116   -0.0953 H   0  0  0  0  0  0  0  0  0  0  0  0
    3.4874   -0.8573    0.0974 H   0  0  0  0  0  0  0  0  0  0  0  0
    2.8434    1.6649    0.1609 H   0  0  0  0  0  0  0  0  0  0  0  0
  1  2  1  0  0  0  0
  2  3  1  0  0  0  0
  3  4  1  0  0  0  0
  4  5  2  0  0  0  0
  5  6  4  0  0  0  0
  6  7  2  0  0  0  0
  4  8  1  0  0  0  0
  7  8  1  0  0  0  0
  1  9  1  0  0  0  0
  1 10  1  0  0  0  0
  1 11  1  0  0  0  0
  2 12  1  0  0  0  0
  2 13  1  0  0  0  0
  3 14  1  0  0  0  0
  3 15  1  0  0  0  0
  5 16  1  0  0  0  0
  6 17  1  0  0  0  0
  7 18  1  0  0  0  0
M  CHG  1   1   1
M  END
