21
0.468
N           -1.12677  -1.76081   0.05471
C            0.16660  -1.12393   0.44154
C            0.56890  -0.00957  -0.51783
C            1.83903   0.73544  -0.09700
C            3.09974  -0.13068  -0.13073
C            4.35621   0.64757   0.23212
Cl          -3.55170   0.77778  -0.00421
H           -1.88411  -1.05657   0.03352
H           -1.40536  -2.50423   0.71014
H           -1.06632  -2.17302  -0.88585
H            0.95282  -1.88603   0.48663
H            0.09080  -0.72325   1.45947
H           -0.26636   0.69596  -0.60989
H            0.70184  -0.42524  -1.52340
H            1.70593   1.14654   0.91091
H            1.99093   1.60955  -0.74321
H            3.20637  -0.57630  -1.12834
H            2.97992  -0.98331   0.54936
H            5.25023   0.02047   0.20687
H            4.28195   1.07220   1.23499
H            4.51949   1.47841  -0.45687
