21
0.104
N           -1.10323  -1.67168   0.74033
C           -0.28976  -1.99318  -0.46866
C            0.57443  -0.82046  -0.92423
C            1.65117  -0.43150   0.08808
C            2.53515   0.72046  -0.39320
C            3.60156   1.10737   0.62080
Cl          -2.76693   1.33197   0.05471
H           -1.65748  -0.81252   0.58221
H           -0.50499  -1.50189   1.56029
H           -1.75689  -2.42995   0.98221
H           -0.95938  -2.30246  -1.28130
H            0.34405  -2.86439  -0.26523
H           -0.06530   0.04692  -1.12514
H            1.05099  -1.05382  -1.88484
H            2.27487  -1.30414   0.31630
H            1.18531  -0.15714   1.04144
H            1.90423   1.58774  -0.62786
H            3.00294   0.44484  -1.34735
H            3.15327   1.41988   1.56580
H            4.22676   1.92993   0.26647
H            4.26098   0.26578   0.84118
