21
1.079
N           -1.51706  -1.69098  -0.07455
C           -0.18143  -2.25084  -0.43339
C            0.89264  -1.93876   0.60575
C            1.16937  -0.44489   0.79175
C            1.71920   0.24033  -0.46063
C            2.07426   1.70093  -0.22266
Cl          -1.57724   1.83060  -0.07016
H           -1.49865  -0.65695  -0.05462
H           -1.80926  -2.01081   0.85878
H           -2.24545  -1.97192  -0.74613
H            0.12354  -1.87191  -1.41544
H           -0.27060  -3.33723  -0.56216
H            1.82840  -2.44409   0.33477
H            0.59484  -2.38048   1.56494
H            1.87939  -0.29855   1.61609
H            0.25591   0.06629   1.11653
H            0.98810   0.16227  -1.27503
H            2.60068  -0.30881  -0.81635
H            2.83394   1.80163   0.55475
H            1.20308   2.27110   0.10501
H            2.46119   2.18226  -1.12363
