21
1.956
N           -0.69140  -0.48825   0.74960
C           -0.06677  -1.12899  -0.44537
C            1.29936  -1.75698  -0.14051
C            2.49038  -0.84117  -0.44241
C            2.52555   0.44209   0.38816
C            3.78185   1.26544   0.14298
Cl          -3.74503   1.00009  -0.16544
H           -1.60028  -0.04812   0.51776
H           -0.08676   0.24277   1.14802
H           -0.86090  -1.18080   1.49226
H            0.03283  -0.39813  -1.25676
H           -0.75826  -1.88947  -0.83175
H            1.41258  -2.69214  -0.70584
H            1.32660  -2.05874   0.91287
H            2.49130  -0.58154  -1.50807
H            3.42817  -1.38960  -0.28510
H            2.44383   0.18763   1.45282
H            1.63802   1.04711   0.16557
H            3.79490   2.18223   0.73668
H            3.86688   1.55326  -0.90652
H            4.68091   0.69969   0.39454
