21
1.182
N           -0.62330  -1.23055  -1.05652
C           -0.07666  -1.91371   0.15326
C            0.59642  -0.95176   1.13984
C            2.09771  -0.74690   0.90657
C            2.46775  -0.08192  -0.42183
C            1.89849   1.32133  -0.57548
Cl          -2.51849   1.49307   0.04376
H           -1.26029  -0.46287  -0.78135
H           -1.15060  -1.87613  -1.66188
H            0.12208  -0.81109  -1.62761
H            0.62752  -2.70042  -0.14206
H           -0.90149  -2.44117   0.65060
H            0.44438  -1.31681   2.16510
H            0.07876   0.01334   1.11128
H            2.60274  -1.71831   0.98531
H            2.51333  -0.14428   1.72476
H            2.14541  -0.71824  -1.25456
H            3.56195  -0.04212  -0.51748
H            2.20981   1.78953  -1.51204
H            2.22517   1.97041   0.23901
H            0.80763   1.31824  -0.56427
