21
2.385
N           -0.39188  -1.01456   1.01848
C            0.31287  -1.46136  -0.21815
C            0.58423  -0.31582  -1.18870
C            1.47064   0.80890  -0.64068
C            2.92194   0.39473  -0.32963
C            3.13819  -0.09800   1.09546
Cl          -3.23525   0.75371  -0.00915
H           -1.26584  -0.51700   0.77449
H            0.18604  -0.36170   1.56577
H           -0.63832  -1.80383   1.63305
H           -0.29143  -2.23220  -0.71385
H            1.24912  -1.96580   0.04318
H           -0.37932   0.10398  -1.50508
H            1.03754  -0.70972  -2.10733
H            1.01518   1.24189   0.25718
H            1.47827   1.63222  -1.36901
H            3.59365   1.24588  -0.51159
H            3.24231  -0.36866  -1.05040
H            4.18314  -0.35490   1.28384
H            2.54626  -0.98513   1.31869
H            2.85591   0.66544   1.82295
