21
0.681
N           -1.39704  -1.76415   0.37206
C            0.08626  -1.62659   0.46256
C            0.67490  -0.95009  -0.76989
C            2.20015  -0.81698  -0.73133
C            2.72760   0.06667   0.40387
C            2.24812   1.50864   0.31954
Cl          -2.53526   1.52349  -0.06135
H           -1.66677  -2.33287  -0.44520
H           -1.83242  -0.83612   0.25814
H           -1.79973  -2.20243   1.21201
H            0.54503  -2.61289   0.59991
H            0.34462  -1.05708   1.36256
H            0.21664   0.03735  -0.89489
H            0.37052  -1.51271  -1.66138
H            2.55840  -0.41534  -1.68792
H            2.64247  -1.81871  -0.65719
H            3.82633   0.04580   0.40386
H            2.44223  -0.36605   1.37093
H            2.68130   2.13104   1.10588
H            1.16347   1.57788   0.41620
H            2.51612   1.95832  -0.63836
