 xtb: 6.5.1 (fef0646)
          01232318453D

 18 16  0     0  0            999 V2000
    1.1010   -0.2685    0.3864 N   0  0  0  0  0  0  0  0  0  0  0  0
    2.5578   -0.3273    0.2486 C   0  0  0  0  0  0  0  0  0  0  0  0
    2.9881   -1.3158   -0.8386 C   0  0  0  0  0  0  0  0  0  0  0  0
    2.5059   -0.8757   -2.2169 C   0  0  0  0  0  0  0  0  0  0  0  0
    4.5089   -1.4571   -0.8275 C   0  0  0  0  0  0  0  0  0  0  0  0
   -0.3725    1.3266   -1.5783 Cl  0  0  0  0  0  0  0  0  0  0  0  0
    0.8446    0.2355    1.2285 H   0  0  0  0  0  0  0  0  0  0  0  0
    0.7103   -1.2040    0.4396 H   0  0  0  0  0  0  0  0  0  0  0  0
    0.3658    0.5574   -0.7068 H   0  0  0  0  0  0  0  0  0  0  0  0
    3.0356   -0.6175    1.1953 H   0  0  0  0  0  0  0  0  0  0  0  0
    2.9016    0.6770   -0.0107 H   0  0  0  0  0  0  0  0  0  0  0  0
    2.5467   -2.2928   -0.6056 H   0  0  0  0  0  0  0  0  0  0  0  0
    2.9157    0.1000   -2.4649 H   0  0  0  0  0  0  0  0  0  0  0  0
    1.4234   -0.8077   -2.2496 H   0  0  0  0  0  0  0  0  0  0  0  0
    2.8317   -1.5876   -2.9714 H   0  0  0  0  0  0  0  0  0  0  0  0
    4.9777   -0.5018   -1.0517 H   0  0  0  0  0  0  0  0  0  0  0  0
    4.8259   -2.1780   -1.5766 H   0  0  0  0  0  0  0  0  0  0  0  0
    4.8635   -1.7950    0.1440 H   0  0  0  0  0  0  0  0  0  0  0  0
  1  2  1  0  0  0  0
  2  3  1  0  0  0  0
  3  4  1  0  0  0  0
  3  5  1  0  0  0  0
  1  7  1  0  0  0  0
  1  8  1  0  0  0  0
  6  9  1  0  0  0  0
  2 10  1  0  0  0  0
  2 11  1  0  0  0  0
  3 12  1  0  0  0  0
  4 13  1  0  0  0  0
  4 14  1  0  0  0  0
  4 15  1  0  0  0  0
  5 16  1  0  0  0  0
  5 17  1  0  0  0  0
  5 18  1  0  0  0  0
M  END
