18
1.992
N           -1.45675   1.22285   0.28386
C           -0.19751   0.64049  -0.25916
C            1.00009   1.56272  -0.07603
C            2.29769   0.97819  -0.63250
C            2.74237  -0.27132   0.08235
O            2.13228  -0.57852   1.25005
O            3.62781  -0.94497  -0.39905
Cl          -4.11976  -1.05342  -0.19474
H           -2.25747   0.58009   0.15684
H           -1.68599   2.10720  -0.18636
H           -1.36650   1.41618   1.28882
H           -0.32775   0.40807  -1.32232
H            0.00154  -0.32026   0.22980
H            1.13050   1.77373   0.99077
H            0.78646   2.53056  -0.54362
H            3.10757   1.71205  -0.57559
H            2.17809   0.74459  -1.69420
H            2.52950  -1.38722   1.60280
