18
 xtb: 6.5.1 (fef0646)
N           -0.95605466037942        0.53463771038924        1.25179495907649
C           -0.55933334705020        1.84202740743957        0.64855393425343
C            0.36477193695129        1.66801257412527       -0.55709610675432
C            1.78507989971049        1.21925636018514       -0.19917819633814
C            1.87747233019276       -0.22445254723275        0.21933230846833
O            1.95944721354929       -1.12491550722415       -0.79276646433845
O            1.86486334139799       -0.53796050539515        1.38935076998952
Cl          -2.55601994290495       -1.23712273849967       -0.83934777112951
H           -1.40610838800036        0.72514501551458        2.21184643419156
H           -0.00927494252977        0.08799647560152        1.53201784321164
H           -1.44661366259672       -0.00916355440255        0.70147841331365
H           -0.04440717519795        2.54066854300610        1.38055961901547
H           -1.46269717073357        2.38612143590685        0.37180295709347
H            0.41578444070076        2.60711249189654       -1.12516942785560
H           -0.08273480618711        0.93743982224906       -1.22265695543078
H            2.20083699119865        1.84545736213464        0.59753704700341
H            2.45377343016520        1.35443463815998       -1.06250899339432
H            2.01797364092796       -2.01269776294887       -0.41060773208048
