17

N          0.96447       -0.08390       -0.03878
C          2.44669       -0.07252       -0.04058
C          2.95526       -1.47234        0.26522
C          4.48267       -1.50956        0.27238
C          5.00152       -2.90534        0.57715
H          0.58691        0.85084       -0.24234
H          0.58867       -0.37388        0.87416
H          0.58934       -0.72726       -0.74853
H          2.76015        0.65219        0.71703
H          2.76064        0.27047       -1.03088
H          2.57416       -2.17880       -0.48302
H          2.57509       -1.80263        1.24006
H          4.86892       -0.80944        1.02237
H          4.86767       -1.18647       -0.70193
H          4.65811       -3.24475        1.55961
H          6.09585       -2.91169        0.57826
H          4.65769       -3.62342       -0.17416
