36
 xtb: 6.5.1 (fef0646)
N           -4.70254345073184        2.06964590519874       -0.57987246619965
C           -5.02928600408640        1.69190699187634        0.82324611119669
C           -4.51089227585516        0.30067909448696        1.17704753182419
C           -3.03737077595206        0.15263657433204        0.93612555964376
C           -2.11623006666654        0.57528462356656        1.88411265999376
C           -0.76138070173935        0.46845283720147        1.64951997205719
C           -0.28183465050620       -0.06332863132820        0.45170975246037
C            1.14368645309504       -0.19817130880521        0.17071090134458
C            2.12497989358819       -0.07226929791854        1.07584456479409
C            3.54726311492041       -0.22014295746345        0.78539236918671
C            4.04628453463831       -0.15571592959518       -0.51517168778639
C            5.39426929787706       -0.31221236205562       -0.77554081806756
F            5.85504857778331       -0.24190125919053       -2.04940165301025
C            6.26798504812522       -0.53262383472960        0.27615016675409
C            5.79827935508570       -0.58635160519966        1.57255757433817
C            4.45176927676268       -0.42985986278001        1.82785835746537
C           -1.21412608899172       -0.46768523785453       -0.50380230894961
C           -2.56724114665269       -0.35936387459429       -0.26474098243030
Cl          -5.30353699890236       -0.87247428970735       -2.56044256277264
H           -5.15881889010714        2.92365923385158       -0.90162417949625
H           -5.02218949582681        1.28898160779164       -1.24224224432109
H           -3.69413205411391        2.14320529201864       -0.73368687143721
H           -6.11446198531505        1.74273944439089        0.96808309275816
H           -4.59392811277846        2.44185913377595        1.47632345427201
H           -5.04398520985729       -0.45895864224166        0.60313715027978
H           -4.72989647390668        0.07717976073498        2.23346737003618
H           -2.46929022857714        0.96504916956778        2.82594985866943
H           -0.06312777328940        0.78322848474062        2.40618879313126
H            1.40429712668564       -0.41441883411887       -0.85558809575776
H            1.86008071492185        0.05848211477390        2.10448990091033
H            3.38723176318664       -0.02235028374078       -1.35135952534165
H            7.32276834797609       -0.60716022504096        0.06698340972461
H            6.49198860449778       -0.69218275126090        2.39357982324742
H            4.08636110667840       -0.45504877332584        2.84068382866348
H           -0.86823415907463       -0.84547673921399       -1.45112393839901
H           -3.28025207705829       -0.63838183540109       -1.02333650000916
