 xtb: 6.5.1 (fef0646)
          01242317003D

 36 36  0     0  0            999 V2000
   -4.9627    0.9359   -1.5060 N   0  0  0  0  0  0  0  0  0  0  0  0
   -5.0635    1.7772   -0.2795 C   0  0  0  0  0  0  0  0  0  0  0  0
   -4.4275    1.1028    0.9340 C   0  0  0  0  0  0  0  0  0  0  0  0
   -2.9919    0.7333    0.7092 C   0  0  0  0  0  0  0  0  0  0  0  0
   -2.6518   -0.5332    0.2586 C   0  0  0  0  0  0  0  0  0  0  0  0
   -1.3377   -0.8680    0.0196 C   0  0  0  0  0  0  0  0  0  0  0  0
   -0.3133    0.0573    0.2199 C   0  0  0  0  0  0  0  0  0  0  0  0
    1.0664   -0.3298   -0.0443 C   0  0  0  0  0  0  0  0  0  0  0  0
    2.1486    0.3991    0.2625 C   0  0  0  0  0  0  0  0  0  0  0  0
    3.5280    0.0137   -0.0037 C   0  0  0  0  0  0  0  0  0  0  0  0
    4.5668    0.7801    0.5238 C   0  0  0  0  0  0  0  0  0  0  0  0
    5.8903    0.4564    0.2979 C   0  0  0  0  0  0  0  0  0  0  0  0
    6.8863    1.2204    0.8258 F   0  0  0  0  0  0  0  0  0  0  0  0
    6.1915   -0.6534   -0.4719 C   0  0  0  0  0  0  0  0  0  0  0  0
    5.1809   -1.4243   -1.0080 C   0  0  0  0  0  0  0  0  0  0  0  0
    3.8620   -1.0973   -0.7795 C   0  0  0  0  0  0  0  0  0  0  0  0
   -0.6643    1.3340    0.6600 C   0  0  0  0  0  0  0  0  0  0  0  0
   -1.9810    1.6634    0.8975 C   0  0  0  0  0  0  0  0  0  0  0  0
   -5.6134   -2.3863   -0.4993 Cl  0  0  0  0  0  0  0  0  0  0  0  0
   -3.9827    0.8461   -1.8058 H   0  0  0  0  0  0  0  0  0  0  0  0
   -5.5009    1.3231   -2.2932 H   0  0  0  0  0  0  0  0  0  0  0  0
   -5.3072   -0.0198   -1.3146 H   0  0  0  0  0  0  0  0  0  0  0  0
   -6.1167    2.0062   -0.0757 H   0  0  0  0  0  0  0  0  0  0  0  0
   -4.5801    2.7436   -0.4635 H   0  0  0  0  0  0  0  0  0  0  0  0
   -4.9907    0.1981    1.1872 H   0  0  0  0  0  0  0  0  0  0  0  0
   -4.5007    1.7480    1.8167 H   0  0  0  0  0  0  0  0  0  0  0  0
   -3.4336   -1.2538    0.0856 H   0  0  0  0  0  0  0  0  0  0  0  0
   -1.0898   -1.8565   -0.3278 H   0  0  0  0  0  0  0  0  0  0  0  0
    1.2066   -1.2898   -0.5075 H   0  0  0  0  0  0  0  0  0  0  0  0
    2.0102    1.3404    0.7631 H   0  0  0  0  0  0  0  0  0  0  0  0
    4.3440    1.6430    1.1242 H   0  0  0  0  0  0  0  0  0  0  0  0
    7.2246   -0.8993   -0.6436 H   0  0  0  0  0  0  0  0  0  0  0  0
    5.4250   -2.2847   -1.6095 H   0  0  0  0  0  0  0  0  0  0  0  0
    3.0846   -1.7002   -1.2140 H   0  0  0  0  0  0  0  0  0  0  0  0
    0.0994    2.0777    0.8042 H   0  0  0  0  0  0  0  0  0  0  0  0
   -2.2381    2.6550    1.2303 H   0  0  0  0  0  0  0  0  0  0  0  0
  1  2  1  0  0  0  0
  2  3  1  0  0  0  0
  3  4  1  0  0  0  0
  4  5  4  0  0  0  0
  5  6  4  0  0  0  0
  6  7  4  0  0  0  0
  7  8  1  0  0  0  0
  8  9  2  0  0  0  0
  9 10  1  0  0  0  0
 10 11  4  0  0  0  0
 11 12  4  0  0  0  0
 12 13  1  0  0  0  0
 12 14  4  0  0  0  0
 14 15  4  0  0  0  0
 10 16  4  0  0  0  0
 15 16  4  0  0  0  0
  7 17  4  0  0  0  0
  4 18  4  0  0  0  0
 17 18  4  0  0  0  0
  1 20  1  0  0  0  0
  1 21  1  0  0  0  0
  1 22  1  0  0  0  0
  2 23  1  0  0  0  0
  2 24  1  0  0  0  0
  3 25  1  0  0  0  0
  3 26  1  0  0  0  0
  5 27  1  0  0  0  0
  6 28  1  0  0  0  0
  8 29  1  0  0  0  0
  9 30  1  0  0  0  0
 11 31  1  0  0  0  0
 14 32  1  0  0  0  0
 15 33  1  0  0  0  0
 16 34  1  0  0  0  0
 17 35  1  0  0  0  0
 18 36  1  0  0  0  0
M  END
