28
0.475
N           -3.84270  -1.73970  -0.65538
C           -3.89557  -0.70590   0.41005
C           -2.78822   0.31816   0.22002
O           -1.51750  -0.31864   0.19952
C           -0.45701   0.50791   0.05521
C           -0.52704   1.91573  -0.10232
C            0.60811   2.67540  -0.24086
C            1.86332   2.09637  -0.23265
C            2.01319   0.70626  -0.08087
C            3.27772   0.08703  -0.06585
C            3.38865  -1.27122   0.08848
C            2.25322  -2.05624   0.23327
C            1.00401  -1.47735   0.22181
C            0.85650  -0.10096   0.06483
H           -2.90730  -2.17162  -0.67474
H           -4.00795  -1.32331  -1.58392
H           -4.54144  -2.48627  -0.51145
H           -3.77456  -1.19073   1.38614
H           -4.88160  -0.22502   0.42064
H           -2.78701   1.05751   1.03038
H           -2.91254   0.84049  -0.73517
H           -1.48578   2.40256  -0.11561
H            0.52096   3.74490  -0.35795
H            2.74213   2.71047  -0.34178
H            4.16159   0.69384  -0.17599
H            4.36404  -1.73364   0.09904
H            2.35113  -3.12373   0.35661
H            0.11789  -2.07919   0.33851
