 xtb: 6.5.1 (fef0646)
          01242317103D

 21 19  0     0  0            999 V2000
   -0.6914   -0.4882    0.7496 N   0  0  0  0  0  0  0  0  0  0  0  0
   -0.0668   -1.1290   -0.4454 C   0  0  0  0  0  0  0  0  0  0  0  0
    1.2994   -1.7570   -0.1405 C   0  0  0  0  0  0  0  0  0  0  0  0
    2.4904   -0.8412   -0.4424 C   0  0  0  0  0  0  0  0  0  0  0  0
    2.5256    0.4421    0.3882 C   0  0  0  0  0  0  0  0  0  0  0  0
    3.7819    1.2654    0.1430 C   0  0  0  0  0  0  0  0  0  0  0  0
   -3.7450    1.0001   -0.1654 Cl  0  0  0  0  0  0  0  0  0  0  0  0
   -1.6003   -0.0481    0.5178 H   0  0  0  0  0  0  0  0  0  0  0  0
   -0.0868    0.2428    1.1480 H   0  0  0  0  0  0  0  0  0  0  0  0
   -0.8609   -1.1808    1.4923 H   0  0  0  0  0  0  0  0  0  0  0  0
    0.0328   -0.3981   -1.2568 H   0  0  0  0  0  0  0  0  0  0  0  0
   -0.7583   -1.8895   -0.8317 H   0  0  0  0  0  0  0  0  0  0  0  0
    1.4126   -2.6921   -0.7058 H   0  0  0  0  0  0  0  0  0  0  0  0
    1.3266   -2.0587    0.9129 H   0  0  0  0  0  0  0  0  0  0  0  0
    2.4913   -0.5816   -1.5081 H   0  0  0  0  0  0  0  0  0  0  0  0
    3.4282   -1.3896   -0.2851 H   0  0  0  0  0  0  0  0  0  0  0  0
    2.4438    0.1876    1.4528 H   0  0  0  0  0  0  0  0  0  0  0  0
    1.6380    1.0471    0.1656 H   0  0  0  0  0  0  0  0  0  0  0  0
    3.7949    2.1822    0.7367 H   0  0  0  0  0  0  0  0  0  0  0  0
    3.8669    1.5532   -0.9065 H   0  0  0  0  0  0  0  0  0  0  0  0
    4.6809    0.6997    0.3945 H   0  0  0  0  0  0  0  0  0  0  0  0
  1  2  1  0  0  0  0
  2  3  1  0  0  0  0
  3  4  1  0  0  0  0
  4  5  1  0  0  0  0
  5  6  1  0  0  0  0
  1  8  1  0  0  0  0
  1  9  1  0  0  0  0
  1 10  1  0  0  0  0
  2 11  1  0  0  0  0
  2 12  1  0  0  0  0
  3 13  1  0  0  0  0
  3 14  1  0  0  0  0
  4 15  1  0  0  0  0
  4 16  1  0  0  0  0
  5 17  1  0  0  0  0
  5 18  1  0  0  0  0
  6 19  1  0  0  0  0
  6 20  1  0  0  0  0
  6 21  1  0  0  0  0
M  END
