47
0.0
N           -6.88173  -2.81318  -0.06173
C           -7.75697  -1.80757   0.60892
C           -7.81202  -0.46959  -0.13272
C           -6.53638   0.30021  -0.08603
C           -6.41512   1.66089  -0.07005
C           -5.07991   2.12561  -0.04459
C           -4.13997   1.11949  -0.04299
C           -2.72031   1.25427  -0.02573
C           -1.98466   2.42401  -0.00191
C           -0.59428   2.23909   0.00933
C            0.34984   3.38862   0.03326
C           -0.21503   0.89216  -0.00725
C            1.10920   0.36969  -0.00454
C            1.46072  -0.98318  -0.02295
C            0.52896  -2.02372  -0.04494
N           -0.28522  -2.85453  -0.06248
C            2.86559  -1.21537  -0.01719
C            3.40776  -2.50361  -0.03495
N            3.89904  -3.55787  -0.05004
C            3.63390  -0.04993   0.00733
C            5.06269   0.02055   0.01834
C            5.84330   1.16898   0.04773
C            5.32082   2.56222   0.07645
C            7.23469   0.89499   0.04764
C            7.54067  -0.42561   0.02066
S            6.12020  -1.37452  -0.00453
S            2.56455   1.31028   0.02170
S           -1.65108  -0.09819  -0.03378
S           -4.96583  -0.41061  -0.06642
H           -7.22051  -3.02559  -1.01197
H           -6.83931  -3.70118   0.46199
H           -5.92114  -2.45608  -0.15061
H           -7.40146  -1.64158   1.63279
H           -8.76561  -2.22865   0.70809
H           -8.61451   0.15507   0.27747
H           -8.07819  -0.64576  -1.18047
H           -7.26874   2.32261  -0.08240
H           -4.82052   3.17328  -0.03220
H           -2.44115   3.40105   0.00668
H           -0.18481   4.33868   0.05553
H            0.98640   3.38438  -0.85214
H            0.98946   3.34533   0.91529
H            6.13369   3.28760   0.10896
H            4.69570   2.72253   0.95549
H            4.72378   2.76954  -0.81209
H            7.98217   1.67483   0.06764
H            8.53320  -0.83834   0.01604
