 xtb: 6.5.1 (fef0646)
          01242317103D

 21 19  0     0  0            999 V2000
   -1.1148   -1.6547   -0.8048 N   0  0  0  0  0  0  0  0  0  0  0  0
   -0.2966   -2.0303    0.3854 C   0  0  0  0  0  0  0  0  0  0  0  0
    0.5669   -0.8781    0.8917 C   0  0  0  0  0  0  0  0  0  0  0  0
    1.6332   -0.4339   -0.1087 C   0  0  0  0  0  0  0  0  0  0  0  0
    2.5089    0.7044    0.4181 C   0  0  0  0  0  0  0  0  0  0  0  0
    3.5642    1.1475   -0.5845 C   0  0  0  0  0  0  0  0  0  0  0  0
   -2.7224    1.3516    0.0050 Cl  0  0  0  0  0  0  0  0  0  0  0  0
   -1.6625   -0.7994   -0.6083 H   0  0  0  0  0  0  0  0  0  0  0  0
   -1.7740   -2.3987   -1.0747 H   0  0  0  0  0  0  0  0  0  0  0  0
   -0.5198   -1.4544   -1.6202 H   0  0  0  0  0  0  0  0  0  0  0  0
    0.3377   -2.8902    0.1399 H   0  0  0  0  0  0  0  0  0  0  0  0
   -0.9629   -2.3777    1.1853 H   0  0  0  0  0  0  0  0  0  0  0  0
    1.0523   -1.1566    1.8357 H   0  0  0  0  0  0  0  0  0  0  0  0
   -0.0747   -0.0246    1.1405 H   0  0  0  0  0  0  0  0  0  0  0  0
    1.1584   -0.1216   -1.0458 H   0  0  0  0  0  0  0  0  0  0  0  0
    2.2637   -1.2892   -0.3797 H   0  0  0  0  0  0  0  0  0  0  0  0
    2.9860    0.3913    1.3560 H   0  0  0  0  0  0  0  0  0  0  0  0
    1.8708    1.5538    0.6952 H   0  0  0  0  0  0  0  0  0  0  0  0
    3.1062    1.4966   -1.5119 H   0  0  0  0  0  0  0  0  0  0  0  0
    4.2310    0.3238   -0.8462 H   0  0  0  0  0  0  0  0  0  0  0  0
    4.1832    1.9602   -0.1979 H   0  0  0  0  0  0  0  0  0  0  0  0
  1  2  1  0  0  0  0
  2  3  1  0  0  0  0
  3  4  1  0  0  0  0
  4  5  1  0  0  0  0
  5  6  1  0  0  0  0
  1  8  1  0  0  0  0
  1  9  1  0  0  0  0
  1 10  1  0  0  0  0
  2 11  1  0  0  0  0
  2 12  1  0  0  0  0
  3 13  1  0  0  0  0
  3 14  1  0  0  0  0
  4 15  1  0  0  0  0
  4 16  1  0  0  0  0
  5 17  1  0  0  0  0
  5 18  1  0  0  0  0
  6 19  1  0  0  0  0
  6 20  1  0  0  0  0
  6 21  1  0  0  0  0
M  END
