 xtb: 6.5.1 (fef0646)
          01242310103D

 21 19  0     0  0            999 V2000
   -0.0617   -1.6794    0.1848 N   0  0  0  0  0  0  0  0  0  0  0  0
    0.4511   -0.7515    1.2271 C   0  0  0  0  0  0  0  0  0  0  0  0
    0.3615    0.7114    0.8028 C   0  0  0  0  0  0  0  0  0  0  0  0
    1.1245    1.0329   -0.4851 C   0  0  0  0  0  0  0  0  0  0  0  0
    2.6267    0.7432   -0.4161 C   0  0  0  0  0  0  0  0  0  0  0  0
    3.3529    1.5764    0.6288 C   0  0  0  0  0  0  0  0  0  0  0  0
   -3.1969   -0.5508   -0.8019 Cl  0  0  0  0  0  0  0  0  0  0  0  0
   -1.0178   -1.4098   -0.1037 H   0  0  0  0  0  0  0  0  0  0  0  0
   -0.0957   -2.6592    0.5143 H   0  0  0  0  0  0  0  0  0  0  0  0
    0.5303   -1.6592   -0.6644 H   0  0  0  0  0  0  0  0  0  0  0  0
    1.4877   -1.0124    1.4716 H   0  0  0  0  0  0  0  0  0  0  0  0
   -0.1107   -0.9068    2.1577 H   0  0  0  0  0  0  0  0  0  0  0  0
    0.7216    1.3575    1.6136 H   0  0  0  0  0  0  0  0  0  0  0  0
   -0.6963    0.9783    0.6769 H   0  0  0  0  0  0  0  0  0  0  0  0
    0.9788    2.0903   -0.7440 H   0  0  0  0  0  0  0  0  0  0  0  0
    0.6768    0.4751   -1.3178 H   0  0  0  0  0  0  0  0  0  0  0  0
    3.0796    0.9171   -1.4027 H   0  0  0  0  0  0  0  0  0  0  0  0
    2.7873   -0.3250   -0.2210 H   0  0  0  0  0  0  0  0  0  0  0  0
    4.4301    1.3901    0.6256 H   0  0  0  0  0  0  0  0  0  0  0  0
    2.9916    1.3610    1.6364 H   0  0  0  0  0  0  0  0  0  0  0  0
    3.2050    2.6446    0.4545 H   0  0  0  0  0  0  0  0  0  0  0  0
  1  2  1  0  0  0  0
  2  3  1  0  0  0  0
  3  4  1  0  0  0  0
  4  5  1  0  0  0  0
  5  6  1  0  0  0  0
  1  8  1  0  0  0  0
  1  9  1  0  0  0  0
  1 10  1  0  0  0  0
  2 11  1  0  0  0  0
  2 12  1  0  0  0  0
  3 13  1  0  0  0  0
  3 14  1  0  0  0  0
  4 15  1  0  0  0  0
  4 16  1  0  0  0  0
  5 17  1  0  0  0  0
  5 18  1  0  0  0  0
  6 19  1  0  0  0  0
  6 20  1  0  0  0  0
  6 21  1  0  0  0  0
M  END
