36
 xtb: 6.5.1 (fef0646)
N           -4.44045109283744        0.63803795561862       -1.59210406890311
C           -4.77552742717120        1.56621161601171       -0.47206019121105
C           -4.10104254537238        1.15144323045954        0.83455601471465
C           -2.60977699669428        1.04567581413346        0.71563651968687
C           -1.80531262688006        2.16756573376701        0.84942690426617
C           -0.43704518789443        2.07263864789881        0.71673553533366
C            0.17702729276364        0.85055095645304        0.43658526833494
C            1.62772211534858        0.79028990469252        0.30821808049347
C            2.34402047147480       -0.32303025550777        0.07992565326431
C            3.79572089193845       -0.37536937883579       -0.04741716379845
C            4.44273189250307       -1.61272142144224       -0.03574062478324
C            5.81320284544530       -1.69748725023356       -0.15694521594456
C            6.56874189859537       -0.54962830447457       -0.29753177704464
C            5.94797081609611        0.68385670103625       -0.31808220630371
C            4.57739610312670        0.77282265517292       -0.19492519251263
C           -0.64144301266858       -0.27027460706036        0.28722680951332
C           -2.00853960462811       -0.16990036956758        0.42339118525608
Cl          -4.51767804485348       -2.56710567369890       -0.36849901510106
H           -3.44004916836859        0.75844228715257       -1.84927480283965
H           -4.99165962997107        0.87781526769659       -2.44685386768579
H           -4.59409840281374       -0.31100044180215       -1.33398774535775
H           -5.86092047780987        1.61646082938109       -0.33254256041283
H           -4.46919555328990        2.60273804463088       -0.71239042175107
H           -4.49955064519491        0.16823394134933        1.14394537928142
H           -4.35247720085786        1.82961020139825        1.65143896503579
H           -2.26623939628570        3.10701971684192        1.09556540694208
H            0.17220581533311        2.94829548708738        0.85084776960584
H            2.14150714242161        1.73969649241878        0.34171829228590
H            1.83572084288656       -1.26585267049297        0.09016230795535
H            3.85866592007756       -2.50512258783256        0.12047147372997
H            6.29615872591093       -2.66134579670394       -0.12218645492171
H            7.63774408267297       -0.62130982308957       -0.41648670635845
H            6.53421457076120        1.57455958894678       -0.47297470359644
H            4.10577973791073        1.73823339655234       -0.24268155813275
H           -0.20249127114517       -1.21536734648351        0.00784769727177
H           -2.62853861304084       -1.03867533367477        0.25558951064369
