 xtb: 6.5.1 (fef0646)
          01242310053D

 36 36  0     0  0            999 V2000
   -4.4292    0.1936   -1.6682 N   0  0  0  0  0  0  0  0  0  0  0  0
   -4.8021    1.3319   -0.7852 C   0  0  0  0  0  0  0  0  0  0  0  0
   -4.1233    1.2398    0.5795 C   0  0  0  0  0  0  0  0  0  0  0  0
   -2.6292    1.1392    0.4775 C   0  0  0  0  0  0  0  0  0  0  0  0
   -2.0060   -0.1004    0.4459 C   0  0  0  0  0  0  0  0  0  0  0  0
   -0.6374   -0.2024    0.3123 C   0  0  0  0  0  0  0  0  0  0  0  0
    0.1574    0.9387    0.2003 C   0  0  0  0  0  0  0  0  0  0  0  0
    1.6086    0.8736    0.0554 C   0  0  0  0  0  0  0  0  0  0  0  0
    2.3515   -0.2353    0.1832 C   0  0  0  0  0  0  0  0  0  0  0  0
    3.8026   -0.3014    0.0362 C   0  0  0  0  0  0  0  0  0  0  0  0
    4.5587    0.7726   -0.4381 C   0  0  0  0  0  0  0  0  0  0  0  0
    5.9291    0.6717   -0.5648 C   0  0  0  0  0  0  0  0  0  0  0  0
    6.5743   -0.5008   -0.2236 C   0  0  0  0  0  0  0  0  0  0  0  0
    5.8442   -1.5761    0.2439 C   0  0  0  0  0  0  0  0  0  0  0  0
    4.4741   -1.4788    0.3714 C   0  0  0  0  0  0  0  0  0  0  0  0
   -0.4772    2.1810    0.2178 C   0  0  0  0  0  0  0  0  0  0  0  0
   -1.8468    2.2783    0.3519 C   0  0  0  0  0  0  0  0  0  0  0  0
   -4.4742   -2.6980    0.2895 Cl  0  0  0  0  0  0  0  0  0  0  0  0
   -3.4277    0.2343   -1.9154 H   0  0  0  0  0  0  0  0  0  0  0  0
   -4.9701    0.1792   -2.5485 H   0  0  0  0  0  0  0  0  0  0  0  0
   -4.5795   -0.7098   -1.1806 H   0  0  0  0  0  0  0  0  0  0  0  0
   -5.8925    1.3662   -0.6660 H   0  0  0  0  0  0  0  0  0  0  0  0
   -4.5270    2.2741   -1.2747 H   0  0  0  0  0  0  0  0  0  0  0  0
   -4.5013    0.3636    1.1192 H   0  0  0  0  0  0  0  0  0  0  0  0
   -4.3875    2.1031    1.2026 H   0  0  0  0  0  0  0  0  0  0  0  0
   -2.6109   -0.9903    0.5119 H   0  0  0  0  0  0  0  0  0  0  0  0
   -0.1816   -1.1771    0.2796 H   0  0  0  0  0  0  0  0  0  0  0  0
    2.1042    1.8053   -0.1531 H   0  0  0  0  0  0  0  0  0  0  0  0
    1.8601   -1.1593    0.4321 H   0  0  0  0  0  0  0  0  0  0  0  0
    4.0683    1.6886   -0.7195 H   0  0  0  0  0  0  0  0  0  0  0  0
    6.4984    1.5108   -0.9333 H   0  0  0  0  0  0  0  0  0  0  0  0
    7.6460   -0.5772   -0.3232 H   0  0  0  0  0  0  0  0  0  0  0  0
    6.3463   -2.4931    0.5098 H   0  0  0  0  0  0  0  0  0  0  0  0
    3.9067   -2.3191    0.7374 H   0  0  0  0  0  0  0  0  0  0  0  0
    0.1187    3.0743    0.1252 H   0  0  0  0  0  0  0  0  0  0  0  0
   -2.3232    3.2453    0.3569 H   0  0  0  0  0  0  0  0  0  0  0  0
  1  2  1  0  0  0  0
  2  3  1  0  0  0  0
  3  4  1  0  0  0  0
  4  5  4  0  0  0  0
  5  6  4  0  0  0  0
  6  7  4  0  0  0  0
  7  8  1  0  0  0  0
  8  9  2  0  0  0  0
  9 10  1  0  0  0  0
 10 11  4  0  0  0  0
 11 12  4  0  0  0  0
 12 13  4  0  0  0  0
 13 14  4  0  0  0  0
 10 15  4  0  0  0  0
 14 15  4  0  0  0  0
  7 16  4  0  0  0  0
  4 17  4  0  0  0  0
 16 17  4  0  0  0  0
  1 19  1  0  0  0  0
  1 20  1  0  0  0  0
  1 21  1  0  0  0  0
  2 22  1  0  0  0  0
  2 23  1  0  0  0  0
  3 24  1  0  0  0  0
  3 25  1  0  0  0  0
  5 26  1  0  0  0  0
  6 27  1  0  0  0  0
  8 28  1  0  0  0  0
  9 29  1  0  0  0  0
 11 30  1  0  0  0  0
 12 31  1  0  0  0  0
 13 32  1  0  0  0  0
 14 33  1  0  0  0  0
 15 34  1  0  0  0  0
 16 35  1  0  0  0  0
 17 36  1  0  0  0  0
M  END
