25
 xtb: 6.5.1 (fef0646)
N           -1.32729200344831       -0.04944386423664        0.46979203115821
C           -1.52191399984926        1.42835597461218        0.51417008886311
C           -0.51928308988506        2.11211432437435        1.44291890285228
C            0.89336079736278        2.22183834695225        0.85098068284591
C            1.55335869520186        0.90061066099427        0.57703806064350
C            1.78047406120726        0.47290342692819       -0.72592361833774
C            2.32625750746243       -0.77076076222559       -0.97315047106890
C            2.66291050382112       -1.59987754702309        0.07911697686726
C            2.45376796383973       -1.18291045154685        1.37926720873971
C            1.90186485093727        0.05855093610124        1.62555596620338
Cl          -3.54121401287317       -1.47634435320901       -2.05655689624344
H           -1.98306365563732       -0.49175114365470       -0.26750265533704
H           -1.51676406648614       -0.49961692233263        1.33485165354384
H           -0.38202828771635       -0.27901475407618        0.14405214180262
H           -2.55787661296444        1.63813809476550        0.81032582927321
H           -1.43502765906061        1.85929775881678       -0.50697428894903
H           -0.49335450141294        1.52440184991699        2.37610400150437
H           -0.89722362897887        3.08766059781037        1.71892454271813
H            1.52428867221465        2.79035892629506        1.54110002843775
H            0.85091167576943        2.80177396538820       -0.06506477660896
H            1.44182674174778        1.08578272734448       -1.53973220917567
H            2.42268244232951       -1.12495008043994       -1.98329890352578
H            3.09009044811186       -2.57191593692359       -0.10975236350568
H            2.78305404909941       -1.80071101937745        2.20510517625195
H            1.79217421861466        0.40792138043574        2.64334316173499
