 xtb: 6.5.1 (fef0646)
          01242310033D

 15 15  0     0  0            999 V2000
   -1.8086   -0.0000    0.1953 N   0  0  0  0  0  0  0  0  0  0  0  0
   -0.4716    0.0001   -0.4689 C   0  0  0  0  0  0  0  0  0  0  0  0
    0.5126   -1.0866    0.0320 C   0  0  0  0  0  0  0  0  0  0  0  0
    1.6091    0.0000    0.1361 C   0  0  0  0  0  0  0  0  0  0  0  0
    0.5126    1.0865    0.0320 C   0  0  0  0  0  0  0  0  0  0  0  0
   -2.3520   -0.8327   -0.0715 H   0  0  0  0  0  0  0  0  0  0  0  0
   -2.3532    0.8310   -0.0737 H   0  0  0  0  0  0  0  0  0  0  0  0
   -1.7184    0.0014    1.2202 H   0  0  0  0  0  0  0  0  0  0  0  0
   -0.5684    0.0001   -1.5700 H   0  0  0  0  0  0  0  0  0  0  0  0
    0.7237   -1.8841   -0.6941 H   0  0  0  0  0  0  0  0  0  0  0  0
    0.2173   -1.5137    0.9984 H   0  0  0  0  0  0  0  0  0  0  0  0
    2.3080    0.0000   -0.7120 H   0  0  0  0  0  0  0  0  0  0  0  0
    2.1637    0.0001    1.0856 H   0  0  0  0  0  0  0  0  0  0  0  0
    0.7234    1.8841   -0.6941 H   0  0  0  0  0  0  0  0  0  0  0  0
    0.2174    1.5136    0.9985 H   0  0  0  0  0  0  0  0  0  0  0  0
  1  2  1  0  0  0  0
  2  3  1  0  0  0  0
  3  4  1  0  0  0  0
  2  5  1  0  0  0  0
  4  5  1  0  0  0  0
  1  6  1  0  0  0  0
  1  7  1  0  0  0  0
  1  8  1  0  0  0  0
  2  9  1  0  0  0  0
  3 10  1  0  0  0  0
  3 11  1  0  0  0  0
  4 12  1  0  0  0  0
  4 13  1  0  0  0  0
  5 14  1  0  0  0  0
  5 15  1  0  0  0  0
M  CHG  1   1   1
M  END
