 xtb: 6.5.1 (fef0646)
          01242314573D

 18 16  0     0  0            999 V2000
    0.9959    0.3349   -0.1865 N   0  0  0  0  0  0  0  0  0  0  0  0
    2.4653    0.2178   -0.1918 C   0  0  0  0  0  0  0  0  0  0  0  0
    3.0943    1.2784   -1.0903 C   0  0  0  0  0  0  0  0  0  0  0  0
    4.6181    1.1751   -1.0656 C   0  0  0  0  0  0  0  0  0  0  0  0
    5.2635    2.1432   -2.0287 C   0  0  0  0  0  0  0  0  0  0  0  0
    6.5958    2.1319   -2.0618 O   0  0  0  0  0  0  0  0  0  0  0  0
    4.6474    2.8967   -2.7454 O   0  0  0  0  0  0  0  0  0  0  0  0
   -0.1394   -2.0239    1.3664 Cl  0  0  0  0  0  0  0  0  0  0  0  0
    0.5725   -0.4523    0.3708 H   0  0  0  0  0  0  0  0  0  0  0  0
    0.6219    0.2694   -1.1364 H   0  0  0  0  0  0  0  0  0  0  0  0
    0.6973    1.2171    0.2348 H   0  0  0  0  0  0  0  0  0  0  0  0
    2.7266   -0.7817   -0.5390 H   0  0  0  0  0  0  0  0  0  0  0  0
    2.8227    0.3209    0.8324 H   0  0  0  0  0  0  0  0  0  0  0  0
    2.8060    2.2778   -0.7640 H   0  0  0  0  0  0  0  0  0  0  0  0
    2.7557    1.1570   -2.1199 H   0  0  0  0  0  0  0  0  0  0  0  0
    4.9274    0.1642   -1.3403 H   0  0  0  0  0  0  0  0  0  0  0  0
    4.9937    1.3838   -0.0618 H   0  0  0  0  0  0  0  0  0  0  0  0
    7.0041    1.4904   -1.4526 H   0  0  0  0  0  0  0  0  0  0  0  0
  1  2  1  0  0  0  0
  2  3  1  0  0  0  0
  3  4  1  0  0  0  0
  4  5  1  0  0  0  0
  5  6  1  0  0  0  0
  5  7  2  0  0  0  0
  1  9  1  0  0  0  0
  1 10  1  0  0  0  0
  1 11  1  0  0  0  0
  2 12  1  0  0  0  0
  2 13  1  0  0  0  0
  3 14  1  0  0  0  0
  3 15  1  0  0  0  0
  4 16  1  0  0  0  0
  4 17  1  0  0  0  0
  6 18  1  0  0  0  0
M  END
