36
0.324
N           -4.71550   2.03016  -0.61037
C           -5.03086   1.68652   0.80431
C           -4.50978   0.30337   1.18529
C           -3.03727   0.15093   0.94225
C           -2.11353   0.55040   1.89705
C           -0.75926   0.44238   1.65891
C           -0.28329  -0.06558   0.44989
C            1.14142  -0.19401   0.16259
C            2.12233  -0.11231   1.07215
C            3.54589  -0.24213   0.78195
C            4.04582  -0.19673  -0.51915
C            5.39758  -0.31934  -0.77481
F            5.85884  -0.26771  -2.04937
C            6.27514  -0.49110   0.28161
C            5.80417  -0.53431   1.57788
C            4.45390  -0.40937   1.82847
C           -1.21796  -0.44825  -0.51179
C           -2.57007  -0.34073  -0.26814
Cl          -5.30144  -0.81919  -2.53478
H           -5.16774   2.90798  -0.91592
H           -5.02088   1.27015  -1.24619
H           -3.69851   2.13831  -0.74323
H           -6.11467   1.74143   0.96444
H           -4.59360   2.44435   1.46564
H           -5.04424  -0.46137   0.61024
H           -4.72861   0.08385   2.23722
H           -2.46770   0.95298   2.83206
H           -0.06171   0.77068   2.41036
H            1.40299  -0.39786  -0.86111
H            1.85834   0.03295   2.10516
H            3.38658  -0.04689  -1.35431
H            7.32580  -0.58694   0.06965
H            6.49435  -0.66686   2.39624
H            4.08701  -0.44548   2.84102
H           -0.87008  -0.83481  -1.45579
H           -3.28151  -0.62916  -1.02533
