19
 xtb: 6.5.1 (fef0646)
N           -0.32800434394137       -1.64119449325057       -0.00189208526480
C           -1.11446001105351       -0.90954360910324       -1.03449226784020
C           -1.95663865198253        0.19172979494023       -0.39347570564463
C           -1.11172554858857        1.27785930763020        0.17884451855369
C           -0.75000698450545        2.41301874513144       -0.47187264146457
C            0.07492585116336        3.27986395104293        0.30376335457955
C            0.34012139673618        2.79938299037478        1.53871934742034
S           -0.44082230373844        1.27996928626161        1.79662134677383
Cl           2.28148918058786       -3.66781925265748       -1.60484608207514
H            0.43915857132240       -2.24523399054487       -0.44241058160591
H           -0.91020220065998       -2.26509079068069        0.54489868137939
H            0.13185635850354       -0.98113188026976        0.61462520692902
H           -1.71215225731208       -1.61341945279805       -1.61797057945590
H           -0.40810821696275       -0.45967825435777       -1.77769065373119
H           -2.56107197287597       -0.24927974072109        0.38377023242313
H           -2.63640133047074        0.60983081418810       -1.13658922017709
H           -1.10576347823641        2.66310367045009       -1.46016228830561
H            0.39480359211727        4.25353693762696       -0.03416831618239
H            0.94028805890068        3.28407279613013        2.28354621553780
