 xtb: 6.5.1 (fef0646)
          01232313453D

 18 18  0     0  0            999 V2000
    1.0008   -0.6089   -0.2410 N   0  0  0  0  0  0  0  0  0  0  0  0
    2.3992   -0.0777   -0.0313 C   0  0  0  0  0  0  0  0  0  0  0  0
    2.8882    0.5468   -1.3070 C   0  0  0  0  0  0  0  0  0  0  0  0
    2.6514    1.8939   -1.5610 C   0  0  0  0  0  0  0  0  0  0  0  0
    3.0872    2.4632   -2.7446 C   0  0  0  0  0  0  0  0  0  0  0  0
    3.7548    1.6901   -3.6809 C   0  0  0  0  0  0  0  0  0  0  0  0
    3.9873    0.3463   -3.4355 C   0  0  0  0  0  0  0  0  0  0  0  0
    3.5533   -0.2265   -2.2530 C   0  0  0  0  0  0  0  0  0  0  0  0
    0.6269   -1.0444    0.6114 H   0  0  0  0  0  0  0  0  0  0  0  0
    1.0123   -1.3035   -0.9994 H   0  0  0  0  0  0  0  0  0  0  0  0
    0.3843    0.1637   -0.5252 H   0  0  0  0  0  0  0  0  0  0  0  0
    3.0355   -0.9117    0.2664 H   0  0  0  0  0  0  0  0  0  0  0  0
    2.3642    0.6545    0.7759 H   0  0  0  0  0  0  0  0  0  0  0  0
    2.1459    2.5025   -0.8250 H   0  0  0  0  0  0  0  0  0  0  0  0
    2.9108    3.5104   -2.9326 H   0  0  0  0  0  0  0  0  0  0  0  0
    4.1004    2.1369   -4.5997 H   0  0  0  0  0  0  0  0  0  0  0  0
    4.5117   -0.2546   -4.1615 H   0  0  0  0  0  0  0  0  0  0  0  0
    3.7508   -1.2704   -2.0562 H   0  0  0  0  0  0  0  0  0  0  0  0
  1  2  1  0  0  0  0
  2  3  1  0  0  0  0
  3  4  4  0  0  0  0
  4  5  4  0  0  0  0
  5  6  4  0  0  0  0
  6  7  4  0  0  0  0
  3  8  4  0  0  0  0
  7  8  4  0  0  0  0
  1  9  1  0  0  0  0
  1 10  1  0  0  0  0
  1 11  1  0  0  0  0
  2 12  1  0  0  0  0
  2 13  1  0  0  0  0
  4 14  1  0  0  0  0
  5 15  1  0  0  0  0
  6 16  1  0  0  0  0
  7 17  1  0  0  0  0
  8 18  1  0  0  0  0
M  CHG  1   1   1
M  END
