 xtb: 6.5.1 (fef0646)
          01242310043D

 28 27  0     0  0            999 V2000
   -3.1832    1.4031   -0.4925 N   0  0  0  0  0  0  0  0  0  0  0  0
   -2.1315    1.7656    0.4954 C   0  0  0  0  0  0  0  0  0  0  0  0
   -0.8668    0.9070    0.3600 C   0  0  0  0  0  0  0  0  0  0  0  0
    0.1295    1.1742    1.5140 C   0  0  0  0  0  0  0  0  0  0  0  0
    1.3800    0.2887    1.3947 C   0  0  0  0  0  0  0  0  0  0  0  0
    2.0779    0.4790    0.0351 C   0  0  0  0  0  0  0  0  0  0  0  0
    3.2824   -0.4270   -0.0798 C   0  0  0  0  0  0  0  0  0  0  0  0
    3.0415   -1.7564   -0.0589 O   0  0  0  0  0  0  0  0  0  0  0  0
    4.3926    0.0509   -0.1813 O   0  0  0  0  0  0  0  0  0  0  0  0
    1.0929    0.2293   -1.1228 C   0  0  0  0  0  0  0  0  0  0  0  0
   -0.1602    1.1116   -1.0011 C   0  0  0  0  0  0  0  0  0  0  0  0
   -3.5930   -2.0320   -0.2796 Cl  0  0  0  0  0  0  0  0  0  0  0  0
   -2.8864    1.6138   -1.4584 H   0  0  0  0  0  0  0  0  0  0  0  0
   -4.0664    1.9105   -0.3238 H   0  0  0  0  0  0  0  0  0  0  0  0
   -3.3879    0.3871   -0.4474 H   0  0  0  0  0  0  0  0  0  0  0  0
   -2.5343    1.6613    1.5099 H   0  0  0  0  0  0  0  0  0  0  0  0
   -1.8669    2.8231    0.3892 H   0  0  0  0  0  0  0  0  0  0  0  0
   -1.1680   -0.1507    0.4185 H   0  0  0  0  0  0  0  0  0  0  0  0
   -0.3638    1.0303    2.4834 H   0  0  0  0  0  0  0  0  0  0  0  0
    0.4229    2.2296    1.4884 H   0  0  0  0  0  0  0  0  0  0  0  0
    1.1027   -0.7665    1.4967 H   0  0  0  0  0  0  0  0  0  0  0  0
    2.0876    0.4847    2.2103 H   0  0  0  0  0  0  0  0  0  0  0  0
    2.4411    1.5154   -0.0308 H   0  0  0  0  0  0  0  0  0  0  0  0
    3.9073   -2.2017   -0.1396 H   0  0  0  0  0  0  0  0  0  0  0  0
    0.8079   -0.8287   -1.1115 H   0  0  0  0  0  0  0  0  0  0  0  0
    1.5984    0.3844   -2.0844 H   0  0  0  0  0  0  0  0  0  0  0  0
   -0.8537    0.9142   -1.8274 H   0  0  0  0  0  0  0  0  0  0  0  0
    0.1201    2.1663   -1.0983 H   0  0  0  0  0  0  0  0  0  0  0  0
  1  2  1  0  0  0  0
  2  3  1  0  0  0  0
  3  4  1  0  0  0  0
  4  5  1  0  0  0  0
  5  6  1  0  0  0  0
  6  7  1  0  0  0  0
  7  8  1  0  0  0  0
  7  9  2  0  0  0  0
  6 10  1  0  0  0  0
  3 11  1  0  0  0  0
 10 11  1  0  0  0  0
  1 13  1  0  0  0  0
  1 14  1  0  0  0  0
  1 15  1  0  0  0  0
  2 16  1  0  0  0  0
  2 17  1  0  0  0  0
  3 18  1  0  0  0  0
  4 19  1  0  0  0  0
  4 20  1  0  0  0  0
  5 21  1  0  0  0  0
  5 22  1  0  0  0  0
  6 23  1  0  0  0  0
  8 24  1  0  0  0  0
 10 25  1  0  0  0  0
 10 26  1  0  0  0  0
 11 27  1  0  0  0  0
 11 28  1  0  0  0  0
M  END
