  24

 N          2.9937447984       -0.3594939638        0.2318876506
 C          1.9508730275        0.5739980821       -0.2893253684
 C          0.5323671887        0.2534096104        0.2048109821
 C          0.0208635645       -1.1109637572       -0.3154136750
 C         -1.4016420789       -1.4157779164        0.1878817990
 C         -2.3807229422       -0.2929712388       -0.1950102319
 C         -1.8876320619        1.0686498699        0.3234603037
 C         -0.4667719109        1.3721100406       -0.1821628396
 H          3.9311719981       -0.0754874123       -0.0720383867
 H          2.8381530179       -1.3162102852       -0.1027832346
 H          2.9860980451       -0.3780841778        1.2571188795
 H          1.9632210689        0.5638646944       -1.3836258144
 H          2.2135254447        1.5970007645        0.0008138363
 H          0.5623399953        0.1990519063        1.3032259606
 H          0.7085028543       -1.9126466154       -0.0251501613
 H          0.0296486364       -1.0983231171       -1.4099734657
 H         -1.3848845655       -1.5268247566        1.2780823008
 H         -1.7501170826       -2.3818567452       -0.1995109734
 H         -3.3883006918       -0.5106318212        0.1821386409
 H         -2.4782711066       -0.2525320027       -1.2859239393
 H         -1.8901381672        1.0630198517        1.4193596711
 H         -2.5811031934        1.8681919486        0.0326283643
 H         -0.1170467664        2.3397624573        0.1967718408
 H         -0.4791150110        1.4722330803       -1.2722806939
          24
        -25.76394690
 N          3.0017103276       -0.3420472608        0.2510606581
 C          1.9560272508        0.5673373957       -0.3058153385
 C          0.5375624478        0.2492539686        0.1906106394
 C          0.0204173525       -1.1120174787       -0.3321345361
 C         -1.3954265920       -1.4193083608        0.1884420429
 C         -2.3799786677       -0.2948237370       -0.1768346669
 C         -1.8789724608        1.0672127396        0.3343779250
 C         -0.4632659602        1.3695032620       -0.1871625422
 H          3.9382846873       -0.0662389239       -0.0624340352
 H          2.8483858398       -1.3115253909       -0.0454459758
 H          2.9929323921       -0.3207156156        1.2761049269
 H          1.9748805055        0.5254339211       -1.3993253687
 H          2.2091733699        1.6001096686       -0.0430247439
 H          0.5706132248        0.1909707330        1.2887185799
 H          0.7128434495       -1.9156540026       -0.0596833751
 H          0.0123014548       -1.0895586756       -1.4266074907
 H         -1.3641549421       -1.5344926757        1.2778610943
 H         -1.7483769957       -2.3838890014       -0.1986763851
 H         -3.3804970064       -0.5126675991        0.2185833919
 H         -2.4972341574       -0.2535445929       -1.2656732306
 H         -1.8698225611        1.0631816198        1.4302189853
 H         -2.5744010346        1.8671422450        0.0493739208
 H         -0.1080905073        2.3371586108        0.1865595559
 H         -0.4873273394        1.4673129555       -1.2773087762
