  24

 N          2.2186569004       -1.5453665095        0.1018298277
 C          2.6026570383       -0.1163128089        0.0100804769
 C          3.1224555286        0.2472427695       -1.3823990921
 C          4.4420958343       -0.4614590401       -1.7033474728
 C          4.9574015396       -0.0429220250       -3.0793904080
 C          5.1497885792        1.4687568264       -3.1477861746
 C          3.8366538173        2.1797433338       -2.8342234346
 C          3.3213232743        1.7642857618       -1.4590110401
 H          1.8251473013       -1.7534274752        1.0263295045
 H          3.0402661005       -2.1417482972       -0.0470294844
 H          1.5192986404       -1.7693594723       -0.6156021719
 H          3.3745237749        0.0939480744        0.7504808165
 H          1.7313180911        0.4980534363        0.2365529745
 H          2.3804482980       -0.0318095006       -2.1371211924
 H          4.3203566105       -1.5452215220       -1.7082831376
 H          5.1911469792       -0.1979475175       -0.9541015695
 H          4.2438935886       -0.3464423692       -3.8492118958
 H          5.9038073167       -0.5450374609       -3.2899398591
 H          5.5026515922        1.7567370500       -4.1402160882
 H          5.9111871823        1.7747841368       -2.4263252720
 H          3.0979443364        1.9264470087       -3.5982855264
 H          3.9831730077        3.2611508447       -2.8639225442
 H          2.3793780898        2.2771465377       -1.2577689434
 H          4.0429265786        2.0777482181       -0.7021182929
