16
 xtb: 6.5.1 (fef0646)
O            0.72016484268889        1.38167406278238        0.88717082743993
C            1.58603917319242        1.26783464663499       -0.22340242002574
C            1.31868249766223        0.04113455862549       -1.09096487931776
C            1.50589736649890       -1.26534686190570       -0.33015427700671
N            0.58175583000438       -1.37095808000673        0.83502861125885
Cl          -2.32235458289325       -0.03622043925572       -0.13163979352395
H           -0.20693382814872        1.21836840667329        0.60636229327142
H            2.61035557088185        1.24332265656621        0.16608781319843
H            1.50145585608195        2.18774753114154       -0.81107279365147
H            1.95131451507091        0.06298995381132       -1.98362015962695
H            0.28868787064555        0.06918516406711       -1.45116344505593
H            2.58763779654450       -1.34455584229031       -0.01518873953056
H            1.37559812936721       -2.12405246569133       -1.00156282715909
H            0.90307231331829       -0.68690573887779        1.56064827211254
H            0.70775829581960       -2.32464953652422        1.29697064134476
H           -0.33141323758948       -1.21361041940569        0.58660940831644
