 xtb: 6.5.1 (fef0646)
          02032317473D

 16 14  0     0  0            999 V2000
    0.7217    1.3713    0.8908 O   0  0  0  0  0  0  0  0  0  0  0  0
    1.5849    1.2627   -0.2229 C   0  0  0  0  0  0  0  0  0  0  0  0
    1.3214    0.0310   -1.0846 C   0  0  0  0  0  0  0  0  0  0  0  0
    1.5546   -1.2727   -0.3329 C   0  0  0  0  0  0  0  0  0  0  0  0
    0.6785   -1.4062    0.8626 N   0  0  0  0  0  0  0  0  0  0  0  0
   -2.4319    0.0137   -0.1581 Cl  0  0  0  0  0  0  0  0  0  0  0  0
   -0.2069    1.2174    0.6078 H   0  0  0  0  0  0  0  0  0  0  0  0
    2.6104    1.2440    0.1654 H   0  0  0  0  0  0  0  0  0  0  0  0
    1.4990    2.1855   -0.8115 H   0  0  0  0  0  0  0  0  0  0  0  0
    1.9462    0.0633   -1.9858 H   0  0  0  0  0  0  0  0  0  0  0  0
    0.2871    0.0614   -1.4430 H   0  0  0  0  0  0  0  0  0  0  0  0
    2.6045   -1.3406   -0.0243 H   0  0  0  0  0  0  0  0  0  0  0  0
    1.3894   -2.1270   -1.0013 H   0  0  0  0  0  0  0  0  0  0  0  0
    0.9183   -0.6830    1.5586 H   0  0  0  0  0  0  0  0  0  0  0  0
    0.7567   -2.3284    1.3125 H   0  0  0  0  0  0  0  0  0  0  0  0
   -0.3079   -1.2498    0.6005 H   0  0  0  0  0  0  0  0  0  0  0  0
  1  2  1  0  0  0  0
  2  3  1  0  0  0  0
  3  4  1  0  0  0  0
  4  5  1  0  0  0  0
  1  7  1  0  0  0  0
  2  8  1  0  0  0  0
  2  9  1  0  0  0  0
  3 10  1  0  0  0  0
  3 11  1  0  0  0  0
  4 12  1  0  0  0  0
  4 13  1  0  0  0  0
  5 14  1  0  0  0  0
  5 15  1  0  0  0  0
  5 16  1  0  0  0  0
M  END
