17
0.898
N           -4.52338  -0.02177  -0.07519
C           -3.36514  -0.95464   0.07051
C           -2.07985  -0.26551   0.52889
C           -1.48909   0.69635  -0.51072
C           -0.17674   1.32809  -0.07766
I            1.39879  -0.09126   0.00921
H           -5.37758  -0.52924  -0.32609
H           -4.35097   0.67427  -0.80733
H           -4.69831   0.47726   0.80232
H           -3.19156  -1.46655  -0.88304
H           -3.64088  -1.74180   0.78365
H           -1.32836  -1.02134   0.78691
H           -2.27206   0.27839   1.45991
H           -2.22003   1.48574  -0.72967
H           -1.34261   0.16458  -1.46049
H           -0.25842   1.79207   0.90652
H            0.15974   2.09453  -0.77926
