17
 xtb: 6.5.1 (fef0646)
N           -4.53349676422225       -0.00244445075032        0.00248814972351
C           -3.37321811261665       -0.95030642463764        0.03631932598088
C           -2.06779990973490       -0.29218112889947        0.48603053104529
C           -1.48782614117212        0.67811916569275       -0.55228612367725
C           -0.17917613406811        1.32270795623093       -0.12901245229010
I            1.40184308364003       -0.08273405364237        0.04041398120324
H           -5.37219693828339       -0.51130332805981       -0.35855919262597
H           -4.33677333427498        0.72665475151326       -0.73784314587604
H           -4.72512094459104        0.42623580060964        0.85025417013536
H           -3.20431630981964       -1.44652821315043       -0.90483844763502
H           -3.63667724288347       -1.75432331931181        0.76114799453643
H           -1.32634057831705       -1.03364562339662        0.76519327526697
H           -2.25999856154543        0.26627236242518        1.45176029189596
H           -2.22157815871393        1.47940790075101       -0.74053866158074
H           -1.34311611887176        0.16045227030767       -1.47325381880105
H           -0.26130059944831        1.79896874970358        0.88751454687320
H            0.16018853040622        2.08691282797400       -0.80019565779986
