17
 xtb: 6.5.1 (fef0646)
N           -4.51274582730112       -0.05324347638398       -0.20235446996129
C           -3.35586935662881       -0.95772459795164        0.13060585621353
C           -2.11080414818469       -0.21087927936987        0.61438968548855
C           -1.48786904310099        0.70938561052107       -0.44476255491290
C           -0.17511688321600        1.33201858840357        0.00427352245439
I            1.40122173039120       -0.10291214894857       -0.04632266747875
H           -5.37135874852903       -0.55028406636403       -0.34614392567069
H           -4.34239892303484        0.63321697875043       -0.87116093994445
H           -4.70505667349332        0.50752558311417        0.74427536211828
H           -3.16769291948091       -1.49487232532891       -0.84707423334261
H           -3.65063760281283       -1.72259676580372        0.81836569970580
H           -1.33597955213119       -0.99582467080558        0.83633000421788
H           -2.29948268973993        0.30881225976551        1.47242433353020
H           -2.21563846225500        1.48945403427375       -0.72294190398342
H           -1.33684608855218        0.15885922817936       -1.43532240287906
H           -0.25521231423933        1.78088065680613        0.93609472945572
H            0.15738848192454        2.10459846698068       -0.74718326860957
