25
 xtb: 6.5.1 (fef0646)
N            4.14288354641311       -1.29129991246210       -0.89881187109020
C            4.41687139489119        0.06560097597650       -0.34178807541268
C            3.50955923655691        0.42803388696947        0.83511971269694
C            2.07386523060088        0.54762014153602        0.46016992361464
C            1.49007117090342        1.63842316128788       -0.15197035517176
C            0.11548333939302        1.50623736944899       -0.35975293256582
C           -0.40578921142715        0.29490940560676        0.09138286308151
C           -1.75471422409157       -0.10837612554425        0.01566791245400
C           -2.27373566615674       -1.33275546633319        0.42942799311566
C           -3.64834121755955       -1.46344598929013        0.21402362808543
C           -4.22307806752915       -0.35993137561139       -0.36439890467483
S           -3.05346312107257        0.85514404588318       -0.64925964375145
S            0.86307229544545       -0.64966055594709        0.82543434464504
H            3.08002275292612       -1.41131526084978       -1.11371853215485
H            4.23669340517367       -2.03755920802886       -0.09858141291526
H            4.64427596167019       -1.60535568171003       -1.65546627174504
H            4.26161339297491        0.74589095667437       -1.18283114193714
H            5.45244046740878        0.08027553021213       -0.08571328264876
H            3.86672065828991        1.41331046254971        1.23489369450342
H            3.62156283882707       -0.27030001641132        1.63501741028018
H            2.02767828982076        2.57070052228952       -0.37067357463137
H           -0.51170160728440        2.29959021504546       -0.76597435467134
H           -1.64120783239088       -2.10841909236553        0.86212722772420
H           -4.18520000968265       -2.36482247074593        0.47596387899227
H           -5.25530573033740       -0.27014319893136       -0.60563348853998
