  15

 N          0.0091977725       -1.5972981777       -0.2124885830
 C          1.1712827588       -0.9204471578        0.3512727124
 C          1.5766951370        0.3144275728       -0.4473962187
 C          2.7855362869        1.0252328688        0.1413489873
 Cl        -2.3077203006        0.7619930979        0.1673794261
 H         -0.1865650547       -2.4573338327        0.2901216612
 H          0.2055754308       -1.8677970202       -1.1696058522
 H         -1.3845210166       -0.1944530508        0.0146690923
 H          2.0205543500       -1.6136210877        0.4184658314
 H          0.9442174557       -0.6297103985        1.3839716749
 H          0.7231696849        1.0009570073       -0.5057061711
 H          1.7758028343        0.0220977922       -1.4860667397
 H          2.5936710079        1.3468611322        1.1663294029
 H          3.0612645471        1.9110518672       -0.4343748331
 H          3.6560111370        0.3673494650        0.1683021572
          15
        -18.98258864
 N          0.1340082441       -1.1756336565       -0.0009931186
 C          0.9960428882       -0.0024788857        0.0022681283
 C          2.4820985959       -0.3456921444        0.0004332577
 C          3.3697634355        0.8893664885       -0.0012114287
 Cl        -2.8492373582        0.3054500298       -0.0002030938
 H          0.3451820046       -1.7517402247        0.8062084099
 H          0.3466722162       -1.7500806687       -0.8095614701
 H         -1.6530387569       -0.2942652433        0.0013417234
 H          0.7533560710        0.6164898925        0.8755083418
 H          0.7523290109        0.6212885587       -0.8661778893
 H          2.7055929727       -0.9752324029       -0.8697040133
 H          2.7079032669       -0.9747972369        0.8706643457
 H          3.1802783917        1.5105792800       -0.8781898816
 H          4.4309519214        0.6322236701       -0.0045545297
 H          3.1852255241        1.5096254355        0.8776544880
