  15

 N          1.1795803293        0.3477792953       -0.2762079846
 C          2.6220613348        0.1108894795       -0.2335741927
 C          3.1606359475        0.3993555503        1.1646029758
 C          4.6448333673        0.0734107941        1.2684619574
 Cl        -0.2057540163       -1.4152839318        1.6134601656
 H          0.8007860048        0.1567480579       -1.1972736011
 H          0.9654679983        1.3082353281       -0.0277439191
 H          0.4541167382       -0.5900096511        0.7369730950
 H          3.1621163853        0.7239396498       -0.9698249518
 H          2.7883215029       -0.9403287265       -0.4800781735
 H          2.5978519379       -0.1962018216        1.8836391969
 H          3.0003337883        1.4539137544        1.4013999192
 H          4.8177590858       -0.9811647745        1.0696749639
 H          5.0128287271        0.2991191411        2.2657459226
 H          5.2187708687        0.6566578549        0.5511746266
