 xtb: 6.5.1 (fef0646)
          02032320433D

 20 19  0     0  0            999 V2000
   -2.4931    0.8385   -0.2158 N   0  0  0  0  0  0  0  0  0  0  0  0
   -1.9857   -0.4395    0.3674 C   0  0  0  0  0  0  0  0  0  0  0  0
   -0.6235   -0.8583   -0.1814 C   0  0  0  0  0  0  0  0  0  0  0  0
    0.5164    0.0778    0.2253 C   0  0  0  0  0  0  0  0  0  0  0  0
    1.8858   -0.3837   -0.2822 C   0  0  0  0  0  0  0  0  0  0  0  0
    3.0169    0.5524    0.1220 C   0  0  0  0  0  0  0  0  0  0  0  0
   -1.8757    1.6233    0.0156 H   0  0  0  0  0  0  0  0  0  0  0  0
   -3.4280    1.0642    0.1396 H   0  0  0  0  0  0  0  0  0  0  0  0
   -2.5499    0.7724   -1.2370 H   0  0  0  0  0  0  0  0  0  0  0  0
   -2.7241   -1.2280    0.1764 H   0  0  0  0  0  0  0  0  0  0  0  0
   -1.9309   -0.3430    1.4575 H   0  0  0  0  0  0  0  0  0  0  0  0
   -0.6745   -0.9174   -1.2736 H   0  0  0  0  0  0  0  0  0  0  0  0
   -0.3851   -1.8753    0.1521 H   0  0  0  0  0  0  0  0  0  0  0  0
    0.5435    0.1693    1.3167 H   0  0  0  0  0  0  0  0  0  0  0  0
    0.3170    1.0885   -0.1446 H   0  0  0  0  0  0  0  0  0  0  0  0
    1.8527   -0.4807   -1.3741 H   0  0  0  0  0  0  0  0  0  0  0  0
    2.0874   -1.3956    0.0895 H   0  0  0  0  0  0  0  0  0  0  0  0
    2.8561    1.5572   -0.2704 H   0  0  0  0  0  0  0  0  0  0  0  0
    3.9837    0.2061   -0.2472 H   0  0  0  0  0  0  0  0  0  0  0  0
    3.0904    0.6360    1.2069 H   0  0  0  0  0  0  0  0  0  0  0  0
  1  2  1  0  0  0  0
  2  3  1  0  0  0  0
  3  4  1  0  0  0  0
  4  5  1  0  0  0  0
  5  6  1  0  0  0  0
  1  7  1  0  0  0  0
  1  8  1  0  0  0  0
  1  9  1  0  0  0  0
  2 10  1  0  0  0  0
  2 11  1  0  0  0  0
  3 12  1  0  0  0  0
  3 13  1  0  0  0  0
  4 14  1  0  0  0  0
  4 15  1  0  0  0  0
  5 16  1  0  0  0  0
  5 17  1  0  0  0  0
  6 18  1  0  0  0  0
  6 19  1  0  0  0  0
  6 20  1  0  0  0  0
M  CHG  1   1   1
M  END
