 xtb: 6.5.1 (fef0646)
          01242317103D

 21 19  0     0  0            999 V2000
   -0.8261   -1.6349    0.3494 N   0  0  0  0  0  0  0  0  0  0  0  0
    0.3437   -1.0157   -0.3403 C   0  0  0  0  0  0  0  0  0  0  0  0
    0.6488    0.3822    0.1896 C   0  0  0  0  0  0  0  0  0  0  0  0
    1.8471    1.0677   -0.4934 C   0  0  0  0  0  0  0  0  0  0  0  0
    3.1991    0.8206    0.1880 C   0  0  0  0  0  0  0  0  0  0  0  0
    3.6456   -0.6338    0.1922 C   0  0  0  0  0  0  0  0  0  0  0  0
   -3.5387    0.5538   -0.0679 Cl  0  0  0  0  0  0  0  0  0  0  0  0
   -1.6651   -1.0395    0.2415 H   0  0  0  0  0  0  0  0  0  0  0  0
   -0.6486   -1.7326    1.3581 H   0  0  0  0  0  0  0  0  0  0  0  0
   -1.0503   -2.5672   -0.0253 H   0  0  0  0  0  0  0  0  0  0  0  0
    0.1511   -0.9652   -1.4187 H   0  0  0  0  0  0  0  0  0  0  0  0
    1.2176   -1.6666   -0.2374 H   0  0  0  0  0  0  0  0  0  0  0  0
    0.8154    0.3412    1.2721 H   0  0  0  0  0  0  0  0  0  0  0  0
   -0.2541    0.9954    0.0706 H   0  0  0  0  0  0  0  0  0  0  0  0
    1.6691    2.1512   -0.5413 H   0  0  0  0  0  0  0  0  0  0  0  0
    1.8979    0.7463   -1.5406 H   0  0  0  0  0  0  0  0  0  0  0  0
    3.1562    1.1966    1.2187 H   0  0  0  0  0  0  0  0  0  0  0  0
    3.9685    1.4338   -0.3018 H   0  0  0  0  0  0  0  0  0  0  0  0
    3.6344   -1.0545   -0.8150 H   0  0  0  0  0  0  0  0  0  0  0  0
    2.9970   -1.2510    0.8153 H   0  0  0  0  0  0  0  0  0  0  0  0
    4.6599   -0.7482    0.5819 H   0  0  0  0  0  0  0  0  0  0  0  0
  1  2  1  0  0  0  0
  2  3  1  0  0  0  0
  3  4  1  0  0  0  0
  4  5  1  0  0  0  0
  5  6  1  0  0  0  0
  1  8  1  0  0  0  0
  1  9  1  0  0  0  0
  1 10  1  0  0  0  0
  2 11  1  0  0  0  0
  2 12  1  0  0  0  0
  3 13  1  0  0  0  0
  3 14  1  0  0  0  0
  4 15  1  0  0  0  0
  4 16  1  0  0  0  0
  5 17  1  0  0  0  0
  5 18  1  0  0  0  0
  6 19  1  0  0  0  0
  6 20  1  0  0  0  0
  6 21  1  0  0  0  0
M  END
