18

N          0.91355       -0.03194        0.08022
C          2.39685       -0.01233        0.10475
C          2.91210       -0.11320       -1.32046
C          4.44355       -0.11318       -1.36360
C          4.95899       -0.25459       -2.79104
O          4.46214       -1.46857       -3.33866
H          0.52310        0.03097        1.02827
H          0.55738       -0.89943       -0.34363
H          0.53360        0.75435       -0.46436
H          2.71465       -0.86142        0.71679
H          2.69653        0.92308        0.58600
H          2.53040        0.72580       -1.91638
H          2.52346       -1.03129       -1.77800
H          4.81454       -0.95239       -0.76298
H          4.83365        0.81134       -0.92321
H          6.05165       -0.26677       -2.81948
H          4.60697        0.57296       -3.41426
H          5.08088       -2.17856       -3.09241
