26
0.563
N            1.62130  -0.04150   0.46961
C            0.90916  -1.35094   0.46887
C           -0.35881  -1.32575   1.32008
C           -1.38852  -0.35834   0.81156
C           -1.42499   0.88625   1.27965
C           -2.38828   1.93715   0.82068
C           -3.56893   1.36037   0.02198
C           -3.09079   0.29227  -0.96993
C           -2.34452  -0.84188  -0.24770
Cl           4.50399  -0.20892  -1.53033
H            1.89355   0.22996   1.42510
H            1.01703   0.70489   0.09756
H            2.48067  -0.06714  -0.10952
H            1.58936  -2.13588   0.82271
H            0.65485  -1.62607  -0.56126
H           -0.10257  -1.07093   2.35456
H           -0.80500  -2.32627   1.37008
H           -0.71559   1.16031   2.04410
H           -1.85105   2.66415   0.19779
H           -2.75565   2.50632   1.68545
H           -4.11459   2.15853  -0.50005
H           -4.29437   0.91405   0.71333
H           -2.42396   0.75575  -1.70752
H           -3.93598  -0.10481  -1.54903
H           -1.79446  -1.45705  -0.97090
H           -3.06886  -1.51971   0.22008
