26
2.085
N           -1.30687   0.89416   0.48152
C           -1.08491   0.87746  -0.99065
C            0.32996   1.31094  -1.36561
C            1.38680   0.41080  -0.79239
C            1.93795   0.69365   0.38640
C            2.96659  -0.15584   1.06737
C            3.59638  -1.20092   0.13150
C            2.52866  -1.86575  -0.74598
C            1.76370  -0.82025  -1.57539
Cl          -4.54844  -0.09070   1.27384
H           -1.14708   1.83880   0.87051
H           -0.65469   0.25090   0.96104
H           -2.26880   0.60869   0.73378
H           -1.82464   1.52368  -1.47928
H           -1.27570  -0.13219  -1.37454
H            0.50402   2.33734  -1.02135
H            0.44372   1.34649  -2.45686
H            1.62256   1.59468   0.88934
H            2.49765  -0.66787   1.91760
H            3.74628   0.48418   1.50324
H            4.15255  -1.95538   0.70559
H            4.34136  -0.71399  -0.51087
H            1.82231  -2.41083  -0.10651
H            2.98056  -2.62644  -1.39828
H            0.85530  -1.26330  -2.00364
H            2.37272  -0.51406  -2.43495
