26
 xtb: 6.5.1 (fef0646)
N            1.70834965583700       -0.06465783613362        0.38819071230107
C            0.94448590502288       -1.34845633174987        0.42676914386270
C           -0.31264937116357       -1.30134356449832        1.29723752903472
C           -1.36044080124082       -0.34735756758582        0.79911214230959
C           -1.40981626273360        0.89468003950905        1.27143229842483
C           -2.38734729569622        1.93692600720239        0.82268735188510
C           -3.56715189728775        1.35294940526827        0.02795885176283
C           -3.08614810226953        0.28797510532215       -0.96595134429025
C           -2.32620308059579       -0.84036063934280       -0.24807654492461
Cl           4.33659713554801       -0.21317214363438       -1.41881265330801
H            1.91386922482418        0.23057398760608        1.40196409342746
H            1.05322155074289        0.70212232000332        0.06356726316544
H            2.51228067697095       -0.08730012458764       -0.12849685223964
H            1.59584599443150       -2.13864447972827        0.81034489856848
H            0.65929662048768       -1.62751152325173       -0.57146277611385
H           -0.08409837178750       -1.05934016484502        2.34556604103243
H           -0.79059145532944       -2.31952397250595        1.37007326777482
H           -0.70854299831223        1.16516219104726        2.03831211090113
H           -1.85352495766644        2.66612281004302        0.19833665261058
H           -2.75548454320273        2.50444643984635        1.68721057189995
H           -4.11607190932703        2.15552558374041       -0.49764704610796
H           -4.29238274088131        0.91057799453778        0.71577979987408
H           -2.42480454692616        0.75596166685073       -1.70743372956085
H           -3.93474920384519       -0.10800335557236       -1.54646719283785
H           -1.79059234033975       -1.45637825876363       -0.97228712645176
H           -3.06119458154868       -1.51982192205416        0.22288162333296
