12
1.336
N            0.97399   0.54575  -0.31099
C            1.68022  -0.67575   0.16554
C            3.17831  -0.58030  -0.03740
Cl          -2.48144   0.25168   0.09986
H           -0.05126   0.47856  -0.18363
H            1.15458   0.70988  -1.31825
H            1.29931   1.38340   0.19691
H            1.28055  -1.55476  -0.35724
H            1.44899  -0.83997   1.22633
H            3.59490   0.27294   0.50230
H            3.42407  -0.44249  -1.09265
H            3.69977  -1.47667   0.30834
