 xtb: 6.5.1 (fef0646)
          01242310123D

 29 29  0     0  0            999 V2000
   -2.5280    1.6796   -0.5175 N   0  0  0  0  0  0  0  0  0  0  0  0
   -2.9542    0.2991   -0.1806 C   0  0  0  0  0  0  0  0  0  0  0  0
   -1.9346   -0.3554    0.7348 C   0  0  0  0  0  0  0  0  0  0  0  0
   -0.6427   -0.3384    0.1416 O   0  0  0  0  0  0  0  0  0  0  0  0
    0.3787   -0.8537    0.9347 C   0  0  0  0  0  0  0  0  0  0  0  0
    0.2030   -1.4046    2.1944 C   0  0  0  0  0  0  0  0  0  0  0  0
    1.2790   -1.9001    2.9252 C   0  0  0  0  0  0  0  0  0  0  0  0
    2.5493   -1.8581    2.4204 C   0  0  0  0  0  0  0  0  0  0  0  0
    2.7931   -1.3100    1.1451 C   0  0  0  0  0  0  0  0  0  0  0  0
    4.0899   -1.2476    0.5894 C   0  0  0  0  0  0  0  0  0  0  0  0
    4.2915   -0.7094   -0.6498 C   0  0  0  0  0  0  0  0  0  0  0  0
    3.2144   -0.2116   -1.3878 C   0  0  0  0  0  0  0  0  0  0  0  0
    1.9474   -0.2586   -0.8759 C   0  0  0  0  0  0  0  0  0  0  0  0
    1.7048   -0.8053    0.3958 C   0  0  0  0  0  0  0  0  0  0  0  0
   -4.6642    3.1739   -2.8185 Cl  0  0  0  0  0  0  0  0  0  0  0  0
   -3.1618    2.1374   -1.2019 H   0  0  0  0  0  0  0  0  0  0  0  0
   -1.5785    1.6596   -0.9195 H   0  0  0  0  0  0  0  0  0  0  0  0
   -2.4857    2.2708    0.3277 H   0  0  0  0  0  0  0  0  0  0  0  0
   -3.0441   -0.2878   -1.1020 H   0  0  0  0  0  0  0  0  0  0  0  0
   -3.9501    0.3072    0.2783 H   0  0  0  0  0  0  0  0  0  0  0  0
   -2.2015   -1.3960    0.9519 H   0  0  0  0  0  0  0  0  0  0  0  0
   -1.8743    0.1900    1.6829 H   0  0  0  0  0  0  0  0  0  0  0  0
   -0.7832   -1.4567    2.6203 H   0  0  0  0  0  0  0  0  0  0  0  0
    1.1066   -2.3232    3.9023 H   0  0  0  0  0  0  0  0  0  0  0  0
    3.3772   -2.2442    2.9916 H   0  0  0  0  0  0  0  0  0  0  0  0
    4.9204   -1.6317    1.1579 H   0  0  0  0  0  0  0  0  0  0  0  0
    5.2869   -0.6673   -1.0637 H   0  0  0  0  0  0  0  0  0  0  0  0
    3.3854    0.2108   -2.3654 H   0  0  0  0  0  0  0  0  0  0  0  0
    1.1111    0.1216   -1.4382 H   0  0  0  0  0  0  0  0  0  0  0  0
  1  2  1  0  0  0  0
  2  3  1  0  0  0  0
  3  4  1  0  0  0  0
  4  5  1  0  0  0  0
  5  6  4  0  0  0  0
  6  7  4  0  0  0  0
  7  8  2  0  0  0  0
  8  9  4  0  0  0  0
  9 10  4  0  0  0  0
 10 11  2  0  0  0  0
 11 12  4  0  0  0  0
 12 13  2  0  0  0  0
  5 14  4  0  0  0  0
  9 14  4  0  0  0  0
 13 14  4  0  0  0  0
  1 16  1  0  0  0  0
  1 17  1  0  0  0  0
  1 18  1  0  0  0  0
  2 19  1  0  0  0  0
  2 20  1  0  0  0  0
  3 21  1  0  0  0  0
  3 22  1  0  0  0  0
  6 23  1  0  0  0  0
  7 24  1  0  0  0  0
  8 25  1  0  0  0  0
 10 26  1  0  0  0  0
 11 27  1  0  0  0  0
 12 28  1  0  0  0  0
 13 29  1  0  0  0  0
M  END
