  18

 N         -1.7692101914       -0.3250319184       -0.4564246331
 C         -0.6221708835        0.5766298309       -0.1755836399
 C          0.7096639854       -0.1562878459       -0.2275645115
 C          1.9097760949        0.7374226414        0.0671887099
 C          3.2074378309       -0.0283694787        0.0344336793
 O          4.3419679252        0.6961379150        0.2161409314
 O          3.1767426513       -1.2282580921       -0.1441129276
 Cl        -4.8009942249        1.3509233557       -0.1036488476
 H         -2.6791069606        0.1679663448       -0.3819395546
 H         -1.7873938513       -1.1154753041        0.2079857509
 H         -1.7034698630       -0.7230807378       -1.4057740034
 H         -0.7507030877        1.0409149408        0.8095665797
 H         -0.6194213624        1.4063194246       -0.8926602336
 H          0.8404735813       -0.6263573132       -1.2093895039
 H          0.7024691142       -0.9928026553        0.4813901667
 H          1.7958271920        1.2052566922        1.0497726095
 H          1.9551497512        1.5553061989       -0.6583748541
 H          4.1418661097        1.6484562440        0.3474763646
          18
        -29.21300948
 N          0.5997722142        0.2303359593       -0.5674940396
 C          0.1290818769        1.5049953640        0.0289564473
 C         -1.3821264868        1.6901310425       -0.0910146482
 C         -2.2027501942        0.7049198435        0.7492953606
 C         -2.2050975519       -0.6938458366        0.1904240899
 O         -3.0983930324       -0.9582694240       -0.7976157948
 O         -1.3944938598       -1.4898337311        0.6198272259
 Cl         3.9603021663       -0.3407977864        0.0304212778
 H          1.6035723084        0.0458175758       -0.3864397560
 H          0.4432794347        0.2089624513       -1.5870648161
 H          0.0465870796       -0.5418988578       -0.1592906599
 H          0.6589120523        2.3393886560       -0.4478193186
 H          0.4165676840        1.5391046026        1.0868755538
 H         -1.6744681321        1.5945443482       -1.1428812119
 H         -1.6440554794        2.7179944414        0.1931360171
 H         -3.2396181870        1.0444382056        0.8430101753
 H         -1.8092819923        0.6677028967        1.7693761928
 H         -3.6604585012       -0.1760645441       -0.9893066192
          18
        -29.22221487
 N          0.4935766580        0.8519617957       -1.2385125598
 C         -0.1669156048        1.7127340153       -0.2265329960
 C         -0.4066137344        0.9850014846        1.0979764510
 C         -0.8764031605       -0.4648037590        0.9411090001
 C         -2.0124569990       -0.6196031382       -0.0358398060
 O         -3.2479181587       -0.2576980571        0.3923339860
 O         -1.7501208862       -1.0309688469       -1.1485931647
 Cl         3.3432584692       -0.5048828452        0.1701392725
 H          1.3797489120        0.4558590581       -0.8772790707
 H          0.6853943375        1.3461690158       -2.1249468409
 H         -0.1523096760        0.0688468879       -1.4395784764
 H         -1.1268944985        2.0511106218       -0.6380604356
 H          0.4222224429        2.6246493851       -0.0675324985
 H         -1.1390900891        1.5450503440        1.6927994234
 H          0.5155243679        0.9995711683        1.6928770333
 H         -1.1669089570       -0.8910997817        1.9068353262
 H         -0.0492390345       -1.0867368065        0.5847615204
 H         -3.2274978304        0.0367394894        1.3289827543
          18
        -29.23322848
 N          0.3451828415       -1.2862429929       -1.0687980919
 C         -0.2490793365       -2.0714922258        0.0403932860
 C         -0.7903278513       -1.1852314573        1.1597983997
 C         -2.0176322259       -0.3565122346        0.7646114305
 C         -1.6884136381        0.8142872788       -0.1187262391
 O         -1.3108085852        1.9524653430        0.5054591090
 O         -1.7381902077        0.7072776001       -1.3260074298
 Cl         3.0336297016        0.5215383657        0.1295281748
 H          0.6072323062       -1.8657855836       -1.8850301327
 H          1.1807856725       -0.7672903333       -0.7510043956
 H         -0.3474806607       -0.5804931551       -1.3716470388
 H          0.5043677195       -2.7679638672        0.4295340921
 H         -1.0585217360       -2.6998675261       -0.3503435546
 H          0.0006498565       -0.5074641823        1.5008341696
 H         -1.0361004014       -1.8099401427        2.0288149155
 H         -2.5181089620        0.0337027721        1.6572385348
 H         -2.7515904461       -0.9871787043        0.2545950014
 H         -1.1358106135        2.6158395149       -0.1902182142
