 xtb: 6.5.1 (fef0646)
          01242317003D

 36 36  0     0  0            999 V2000
   -4.8684   -0.7799   -0.1640 N   0  0  0  0  0  0  0  0  0  0  0  0
   -5.0059    0.6479    0.2383 C   0  0  0  0  0  0  0  0  0  0  0  0
   -4.2426    1.5862   -0.6931 C   0  0  0  0  0  0  0  0  0  0  0  0
   -2.7668    1.3184   -0.6996 C   0  0  0  0  0  0  0  0  0  0  0  0
   -2.1739    0.6147   -1.7375 C   0  0  0  0  0  0  0  0  0  0  0  0
   -0.8242    0.3393   -1.7223 C   0  0  0  0  0  0  0  0  0  0  0  0
   -0.0179    0.7527   -0.6620 C   0  0  0  0  0  0  0  0  0  0  0  0
    1.4061    0.4445   -0.6789 C   0  0  0  0  0  0  0  0  0  0  0  0
    2.2491    0.6187    0.3485 C   0  0  0  0  0  0  0  0  0  0  0  0
    3.6729    0.3121    0.3296 C   0  0  0  0  0  0  0  0  0  0  0  0
    4.3470   -0.0330   -0.8415 C   0  0  0  0  0  0  0  0  0  0  0  0
    5.6987   -0.3177   -0.8371 C   0  0  0  0  0  0  0  0  0  0  0  0
    6.3342   -0.6511   -1.9945 F   0  0  0  0  0  0  0  0  0  0  0  0
    6.3989   -0.2586    0.3552 C   0  0  0  0  0  0  0  0  0  0  0  0
    5.7541    0.0843    1.5255 C   0  0  0  0  0  0  0  0  0  0  0  0
    4.4062    0.3683    1.5154 C   0  0  0  0  0  0  0  0  0  0  0  0
   -0.6212    1.4591    0.3788 C   0  0  0  0  0  0  0  0  0  0  0  0
   -1.9715    1.7326    0.3583 C   0  0  0  0  0  0  0  0  0  0  0  0
   -6.5778   -2.8403    2.1178 Cl  0  0  0  0  0  0  0  0  0  0  0  0
   -5.3706   -1.4107    0.4814 H   0  0  0  0  0  0  0  0  0  0  0  0
   -3.8790   -1.0626   -0.1719 H   0  0  0  0  0  0  0  0  0  0  0  0
   -5.2433   -0.9343   -1.1128 H   0  0  0  0  0  0  0  0  0  0  0  0
   -4.6394    0.7715    1.2640 H   0  0  0  0  0  0  0  0  0  0  0  0
   -6.0683    0.9185    0.2686 H   0  0  0  0  0  0  0  0  0  0  0  0
   -4.4147    2.6318   -0.4126 H   0  0  0  0  0  0  0  0  0  0  0  0
   -4.6315    1.4883   -1.7118 H   0  0  0  0  0  0  0  0  0  0  0  0
   -2.7821    0.2817   -2.5614 H   0  0  0  0  0  0  0  0  0  0  0  0
   -0.3786   -0.2076   -2.5358 H   0  0  0  0  0  0  0  0  0  0  0  0
    1.7878    0.0268   -1.5931 H   0  0  0  0  0  0  0  0  0  0  0  0
    1.8594    0.9963    1.2766 H   0  0  0  0  0  0  0  0  0  0  0  0
    3.8272   -0.0725   -1.7799 H   0  0  0  0  0  0  0  0  0  0  0  0
    7.4509   -0.4830    0.3493 H   0  0  0  0  0  0  0  0  0  0  0  0
    6.3069    0.1297    2.4496 H   0  0  0  0  0  0  0  0  0  0  0  0
    3.9048    0.6347    2.4303 H   0  0  0  0  0  0  0  0  0  0  0  0
   -0.0254    1.8053    1.2049 H   0  0  0  0  0  0  0  0  0  0  0  0
   -2.4242    2.2751    1.1712 H   0  0  0  0  0  0  0  0  0  0  0  0
  1  2  1  0  0  0  0
  2  3  1  0  0  0  0
  3  4  1  0  0  0  0
  4  5  4  0  0  0  0
  5  6  4  0  0  0  0
  6  7  4  0  0  0  0
  7  8  1  0  0  0  0
  8  9  2  0  0  0  0
  9 10  1  0  0  0  0
 10 11  4  0  0  0  0
 11 12  4  0  0  0  0
 12 13  1  0  0  0  0
 12 14  4  0  0  0  0
 14 15  4  0  0  0  0
 10 16  4  0  0  0  0
 15 16  4  0  0  0  0
  7 17  4  0  0  0  0
  4 18  4  0  0  0  0
 17 18  4  0  0  0  0
  1 20  1  0  0  0  0
  1 21  1  0  0  0  0
  1 22  1  0  0  0  0
  2 23  1  0  0  0  0
  2 24  1  0  0  0  0
  3 25  1  0  0  0  0
  3 26  1  0  0  0  0
  5 27  1  0  0  0  0
  6 28  1  0  0  0  0
  8 29  1  0  0  0  0
  9 30  1  0  0  0  0
 11 31  1  0  0  0  0
 14 32  1  0  0  0  0
 15 33  1  0  0  0  0
 16 34  1  0  0  0  0
 17 35  1  0  0  0  0
 18 36  1  0  0  0  0
M  END
