22
0.0
N            0.71151   1.87942   0.01267
C           -0.60534   1.16756   0.00983
C           -0.77076   0.31423  -1.26178
C           -2.11816  -0.42846  -1.26899
C           -2.27633  -1.29778  -0.00908
C           -2.10955  -0.45375   1.26683
C           -0.76221   0.28907   1.26528
Cl           3.06019  -0.70608  -0.00662
H            0.81912   2.47755  -0.81718
H            1.47686   1.18612   0.00503
H            0.82304   2.46319   0.85217
H           -1.40939   1.92106   0.01996
H            0.05002  -0.40975  -1.30641
H           -0.65732   0.94041  -2.15546
H           -2.22310  -1.03607  -2.17836
H           -2.93517   0.30220  -1.31112
H           -1.52093  -2.09313  -0.01957
H           -3.24558  -1.81550  -0.01094
H           -2.20825  -1.07944   2.16454
H           -2.92623   0.27584   1.32913
H            0.05874  -0.43568   1.28980
H           -0.64251   0.89736   2.17043
