22
0.0
N            0.30541  -1.88996  -0.00407
C            1.53577  -1.03573   0.00430
C            1.62076  -0.16330  -1.26655
C            0.57207   0.96124  -1.26884
C            0.67697   1.82346  -0.00028
C            0.55617   0.96118   1.26692
C            1.60428  -0.16437   1.27743
Cl          -2.70330  -0.06380  -0.00306
H            0.26422  -2.49859   0.82835
H            0.27116  -2.49235  -0.84191
H           -0.54929  -1.31072  -0.00538
H            2.40395  -1.71817   0.00957
H            1.50270  -0.79729  -2.15509
H            2.62344   0.27362  -1.34514
H           -0.43337   0.52817  -1.33629
H            0.67616   1.58452  -2.16856
H           -0.08288   2.61809  -0.00510
H            1.64310   2.34397   0.00577
H           -0.45039   0.52887   1.32243
H            0.64992   1.58441   2.16781
H            1.47364  -0.79906   2.16316
H            2.60612   0.27176   1.37005
