22
 xtb: 6.5.1 (fef0646)
N            0.60992946687407        1.99632039470598        0.01367050958737
C           -0.65846229860864        1.19478376737466        0.01008601508608
C           -0.78483265282961        0.33255686548495       -1.25956080375892
C           -2.12009663826176       -0.43282062740266       -1.27067387301232
C           -2.26922956459477       -1.30185593596703       -0.00909470632132
C           -2.11139682618621       -0.45789473616040        1.26836326884206
C           -0.77618096515494        0.30764139839015        1.26329177799556
Cl           3.19048402912728       -0.82998072795735       -0.00758354630367
H            0.78132863883648        2.51110553158028       -0.81704360276245
H            1.45750468136122        1.23435399357612        0.00492927939030
H            0.78565952461791        2.49611396189426        0.85302975183537
H           -1.43575968183191        1.91723706010489        0.01996172394315
H            0.04978378187610       -0.40028974871298       -1.30239208614396
H           -0.66277263427299        0.94480673898810       -2.15565256465545
H           -2.21992648425709       -1.03860304489045       -2.17833958783445
H           -2.93895510718512        0.29730398391054       -1.31324757010816
H           -1.51652881902706       -2.09202596940256       -0.01953573725214
H           -3.24192767329459       -1.81954564318806       -0.01094637783581
H           -2.20505297424148       -1.08183692264251        2.16447716270568
H           -2.92996058483874        0.27099463071907        1.33113089376975
H            0.05851823605323       -0.42607671229275        1.28595137653215
H           -0.64792162940380        0.90187186502951        2.17064532541294
