22
 xtb: 6.5.1 (fef0646)
N            0.80582508891862        1.77444194158052        0.00907823289878
C           -0.54760342995780        1.12719158881328        0.00890965772301
C           -0.74975336859545        0.28271927640900       -1.26411029661247
C           -2.12030341611760       -0.41767276520222       -1.26803012472872
C           -2.30151926283894       -1.28442521466332       -0.00934447873982
C           -2.10650949723026       -0.44665964224946        1.26693384073874
C           -0.73612607283426        0.25405665752089        1.26438332005703
Cl           2.93541867575984       -0.57640974418477       -0.00166282674255
H            0.85161424548103        2.44808035938321       -0.81792161985230
H            1.49486501019008        1.14767582138121        0.00335580963550
H            0.85657180147216        2.43304145165991        0.85124955633578
H           -1.38385456037994        1.91879564882912        0.02052877136583
H            0.04965984731138       -0.42596991812807       -1.30893217420133
H           -0.64659178137542        0.93133112905313       -2.15553243676346
H           -2.23015777227325       -1.03141013672611       -2.17838583237021
H           -2.92918199418808        0.31280392333355       -1.30954633731817
H           -1.53509808535342       -2.09574883055566       -0.02046200853385
H           -3.25738037700733       -1.80320660807212       -0.01054242223662
H           -2.21269509693670       -1.07663273855795        2.16453748846025
H           -2.91870168606567        0.28531117128128        1.32959395299680
H            0.05997155345256       -0.45288356947074        1.28980732821178
H           -0.62929942273844        0.88656756124430        2.16989060104370
