27

N          0.84658       -0.24246       -1.83773
C          2.32584       -0.24290       -1.94882
C          2.89716        0.87981       -1.09198
C          4.43851        0.93476       -1.11593
C          4.93978        2.05691       -0.18910
C          6.46164        2.18867       -0.21439
C          6.98739        2.37578       -1.63293
C          6.51129        1.25844       -2.55150
C          4.99104        1.12732       -2.53851
H          0.43330       -0.97019       -2.43393
H          0.44550        0.65854       -2.13245
H          0.53736       -0.42140       -0.87301
H          2.54442       -0.11179       -3.01112
H          2.66989       -1.22685       -1.61830
H          2.56409        0.74491       -0.05368
H          2.48921        1.84244       -1.42707
H          4.81940       -0.02027       -0.72760
H          4.61383        1.86493        0.84029
H          4.49322        3.01369       -0.48933
H          6.91258        1.29142        0.22726
H          6.76835        3.03836        0.40589
H          8.08275        2.40183       -1.62157
H          6.64794        3.34199       -2.02577
H          6.96042        0.30830       -2.23693
H          6.85334        1.44947       -3.57482
H          4.71930        0.27747       -3.17353
H          4.54433        2.02200       -2.99074
