25
 xtb: 6.5.1 (fef0646)
N            2.61785670133319       -0.78018631200319       -0.98535831006298
C            2.51349844023065        0.51214341548562       -0.24908104443704
C            1.56787800331726        0.42354506847693        0.94800622438037
C            0.14474950385245        0.18774027391949        0.52855467540636
C           -0.37934377865861       -1.03300633417761        0.59863435885661
C           -1.78529896641523       -1.37735576110448        0.21607349907402
C           -2.46407650817967       -0.28724737385858       -0.62919955152396
C           -2.15083329434477        1.11040361755459       -0.07980254747485
C           -0.63361990090260        1.35484672081555       -0.01685382202777
H            3.10548461902293       -1.49889987947871       -0.43009815311366
H            3.15143704947646       -0.65196476595490       -1.88372911919553
H            1.67603008571840       -1.12102112153887       -1.23645169337684
H            2.19943591097890        1.30271863171857       -0.92507095442452
H            3.52888166340113        0.80369207690606        0.09334863847791
H            1.61091426661274        1.34712699408019        1.53253013042417
H            1.88457338071804       -0.36955806966500        1.61757295882857
H            0.24088208930837       -1.82588515104701        0.97865086682835
H           -2.36745178636505       -1.54584127278588        1.13774819797338
H           -1.79778893624643       -2.33675911765105       -0.31421344518295
H           -3.55603245683915       -0.45440921200217       -0.65880932707991
H           -2.12563446777038       -0.36051365513149       -1.65799557028322
H           -2.57580861118984        1.20577701953117        0.93378241089289
H           -2.65276755005009        1.87823621546274       -0.67739428735302
H           -0.42113339685209        2.24254518717617        0.58359830205209
H           -0.27172129142901        1.58449278745243       -1.02719439507529
