 xtb: 6.5.1 (fef0646)
          01242317083D

 25 25  0     0  0            999 V2000
    2.6278   -0.7718   -1.0020 N   0  0  0  0  0  0  0  0  0  0  0  0
    2.5336    0.5086   -0.2426 C   0  0  0  0  0  0  0  0  0  0  0  0
    1.5647    0.4289    0.9357 C   0  0  0  0  0  0  0  0  0  0  0  0
    0.1420    0.1887    0.5187 C   0  0  0  0  0  0  0  0  0  0  0  0
   -0.3823   -1.0302    0.6030 C   0  0  0  0  0  0  0  0  0  0  0  0
   -1.7873   -1.3805    0.2249 C   0  0  0  0  0  0  0  0  0  0  0  0
   -2.4741   -0.2923   -0.6165 C   0  0  0  0  0  0  0  0  0  0  0  0
   -2.1581    1.1064   -0.0714 C   0  0  0  0  0  0  0  0  0  0  0  0
   -0.6411    1.3542   -0.0225 C   0  0  0  0  0  0  0  0  0  0  0  0
    2.9665   -1.5297   -0.3979 H   0  0  0  0  0  0  0  0  0  0  0  0
    3.2698   -0.6911   -1.7994 H   0  0  0  0  0  0  0  0  0  0  0  0
    1.7075   -1.0475   -1.3655 H   0  0  0  0  0  0  0  0  0  0  0  0
    2.2206    1.3082   -0.9226 H   0  0  0  0  0  0  0  0  0  0  0  0
    3.5340    0.7906    0.1072 H   0  0  0  0  0  0  0  0  0  0  0  0
    1.6091    1.3498    1.5274 H   0  0  0  0  0  0  0  0  0  0  0  0
    1.8824   -0.3663    1.6168 H   0  0  0  0  0  0  0  0  0  0  0  0
    0.2408   -1.8242    0.9801 H   0  0  0  0  0  0  0  0  0  0  0  0
   -2.3669   -1.5484    1.1407 H   0  0  0  0  0  0  0  0  0  0  0  0
   -1.7970   -2.3374   -0.3122 H   0  0  0  0  0  0  0  0  0  0  0  0
   -3.5590   -0.4563   -0.6524 H   0  0  0  0  0  0  0  0  0  0  0  0
   -2.1312   -0.3623   -1.6551 H   0  0  0  0  0  0  0  0  0  0  0  0
   -2.5749    1.2042    0.9375 H   0  0  0  0  0  0  0  0  0  0  0  0
   -2.6573    1.8767   -0.6734 H   0  0  0  0  0  0  0  0  0  0  0  0
   -0.4225    2.2423    0.5818 H   0  0  0  0  0  0  0  0  0  0  0  0
   -0.2761    1.5848   -1.0295 H   0  0  0  0  0  0  0  0  0  0  0  0
  1  2  1  0  0  0  0
  2  3  1  0  0  0  0
  3  4  1  0  0  0  0
  4  5  2  0  0  0  0
  5  6  1  0  0  0  0
  6  7  1  0  0  0  0
  7  8  1  0  0  0  0
  4  9  1  0  0  0  0
  8  9  1  0  0  0  0
  1 10  1  0  0  0  0
  1 11  1  0  0  0  0
  1 12  1  0  0  0  0
  2 13  1  0  0  0  0
  2 14  1  0  0  0  0
  3 15  1  0  0  0  0
  3 16  1  0  0  0  0
  5 17  1  0  0  0  0
  6 18  1  0  0  0  0
  6 19  1  0  0  0  0
  7 20  1  0  0  0  0
  7 21  1  0  0  0  0
  8 22  1  0  0  0  0
  8 23  1  0  0  0  0
  9 24  1  0  0  0  0
  9 25  1  0  0  0  0
M  CHG  1   1   1
M  END
