17

N          0.96264        0.07228       -0.06520
C          2.44498        0.07959       -0.07002
C          2.95584       -1.23942        0.49358
C          4.48579       -1.26982        0.50648
C          5.01762       -2.58812        1.07205
I          7.14875       -2.59026        1.07253
H          0.58924        0.95388       -0.44187
H          0.58377       -0.03597        0.88520
H          0.58204       -0.68957       -0.64216
H          2.76027        0.93328        0.53694
H          2.75817        0.22972       -1.10755
H          2.57661       -2.07400       -0.10905
H          2.57668       -1.38052        1.51330
H          4.85873       -0.42873        1.10481
H          4.85867       -1.12363       -0.51529
H          4.64927       -3.42790        0.47225
H          4.64977       -2.73177        2.09405
