 xtb: 6.5.1 (fef0646)
          01232320463D

 17 16  0     0  0            999 V2000
    0.9226   -0.0636    0.1004 N   0  0  0  0  0  0  0  0  0  0  0  0
    2.4201   -0.0607    0.0669 C   0  0  0  0  0  0  0  0  0  0  0  0
    2.9287    0.1235   -1.3558 C   0  0  0  0  0  0  0  0  0  0  0  0
    4.4622    0.1256   -1.3754 C   0  0  0  0  0  0  0  0  0  0  0  0
    4.9936    0.3094   -2.7874 C   0  0  0  0  0  0  0  0  0  0  0  0
    7.1598    0.3096   -2.7919 I   0  0  0  0  0  0  0  0  0  0  0  0
    0.5704   -0.1875    1.0584 H   0  0  0  0  0  0  0  0  0  0  0  0
    0.5603   -0.8274   -0.4863 H   0  0  0  0  0  0  0  0  0  0  0  0
    0.5619    0.8253   -0.2720 H   0  0  0  0  0  0  0  0  0  0  0  0
    2.7758   -1.0073    0.4766 H   0  0  0  0  0  0  0  0  0  0  0  0
    2.7774    0.7494    0.7045 H   0  0  0  0  0  0  0  0  0  0  0  0
    2.5673    1.0693   -1.7647 H   0  0  0  0  0  0  0  0  0  0  0  0
    2.5667   -0.6867   -1.9922 H   0  0  0  0  0  0  0  0  0  0  0  0
    4.8335   -0.8167   -0.9690 H   0  0  0  0  0  0  0  0  0  0  0  0
    4.8340    0.9321   -0.7412 H   0  0  0  0  0  0  0  0  0  0  0  0
    4.6801    1.2600   -3.2119 H   0  0  0  0  0  0  0  0  0  0  0  0
    4.6798   -0.5007   -3.4412 H   0  0  0  0  0  0  0  0  0  0  0  0
  1  2  1  0  0  0  0
  2  3  1  0  0  0  0
  3  4  1  0  0  0  0
  4  5  1  0  0  0  0
  5  6  1  0  0  0  0
  1  7  1  0  0  0  0
  1  8  1  0  0  0  0
  1  9  1  0  0  0  0
  2 10  1  0  0  0  0
  2 11  1  0  0  0  0
  3 12  1  0  0  0  0
  3 13  1  0  0  0  0
  4 14  1  0  0  0  0
  4 15  1  0  0  0  0
  5 16  1  0  0  0  0
  5 17  1  0  0  0  0
M  CHG  1   1   1
M  END
