18
2.932
N           -0.64158   0.18607   0.60837
C           -0.50372   1.40613  -0.23142
C            0.92281   1.95434  -0.24967
C            1.92910   1.05770  -0.97983
C            2.34054  -0.15241  -0.18284
O            3.35742   0.03171   0.68974
O            1.75812  -1.20758  -0.31792
Cl          -3.81636  -1.26108   0.16704
H           -1.56496  -0.26739   0.49902
H           -0.49878   0.39806   1.60338
H            0.09227  -0.48199   0.32294
H           -1.20596   2.16829   0.12807
H           -0.81703   1.17906  -1.25712
H            1.26669   2.11086   0.77820
H            0.91966   2.94966  -0.71177
H            2.83767   1.62115  -1.21647
H            1.51688   0.72918  -1.93779
H            3.53129  -0.80279   1.14751
