18
 xtb: 6.5.1 (fef0646)
N           -0.74922177248740        0.15891914660573        0.58458206366061
C           -0.55046675457822        1.38366575347995       -0.24184391652445
C            0.88158309721643        1.92434926806563       -0.23128681165729
C            1.89788878065236        1.04607511348750       -0.96961335762732
C            2.32418110916713       -0.16578016734585       -0.18151859204940
O            3.32578534198612        0.03379766463733        0.69802987951743
O            1.77699609585258       -1.23194358753767       -0.33987583947591
Cl          -3.63192863813118       -1.17487225004371        0.18040007930804
H           -1.60016021335676       -0.27317250192137        0.48210167774662
H           -0.53906406822434        0.38880578399071        1.59891464884204
H            0.06242221044338       -0.49164913599637        0.32577451621623
H           -1.21894670046855        2.16397247384963        0.12150930129634
H           -0.82513246446729        1.17582708631494       -1.26256681070288
H            1.25150515221010        2.09660304049520        0.78542625254696
H            0.90929303323376        2.94356144519523       -0.70109492144642
H            2.82704599593685        1.62103887457756       -1.21189186352609
H            1.50916083777070        0.72634490260087       -1.93555549836682
H            3.52784450509041       -0.80129422294813        1.14985273711855
