 xtb: 6.5.1 (fef0646)
          01242317093D

 18 16  0     0  0            999 V2000
   -0.6416    0.1861    0.6084 N   0  0  0  0  0  0  0  0  0  0  0  0
   -0.5037    1.4061   -0.2314 C   0  0  0  0  0  0  0  0  0  0  0  0
    0.9228    1.9543   -0.2497 C   0  0  0  0  0  0  0  0  0  0  0  0
    1.9291    1.0577   -0.9798 C   0  0  0  0  0  0  0  0  0  0  0  0
    2.3405   -0.1524   -0.1828 C   0  0  0  0  0  0  0  0  0  0  0  0
    3.3574    0.0317    0.6897 O   0  0  0  0  0  0  0  0  0  0  0  0
    1.7581   -1.2076   -0.3179 O   0  0  0  0  0  0  0  0  0  0  0  0
   -3.8164   -1.2611    0.1671 Cl  0  0  0  0  0  0  0  0  0  0  0  0
   -1.5650   -0.2674    0.4990 H   0  0  0  0  0  0  0  0  0  0  0  0
   -0.4988    0.3981    1.6034 H   0  0  0  0  0  0  0  0  0  0  0  0
    0.0923   -0.4820    0.3229 H   0  0  0  0  0  0  0  0  0  0  0  0
   -1.2059    2.1683    0.1281 H   0  0  0  0  0  0  0  0  0  0  0  0
   -0.8170    1.1791   -1.2571 H   0  0  0  0  0  0  0  0  0  0  0  0
    1.2667    2.1109    0.7782 H   0  0  0  0  0  0  0  0  0  0  0  0
    0.9197    2.9497   -0.7118 H   0  0  0  0  0  0  0  0  0  0  0  0
    2.8377    1.6211   -1.2165 H   0  0  0  0  0  0  0  0  0  0  0  0
    1.5169    0.7292   -1.9378 H   0  0  0  0  0  0  0  0  0  0  0  0
    3.5313   -0.8028    1.1475 H   0  0  0  0  0  0  0  0  0  0  0  0
  1  2  1  0  0  0  0
  2  3  1  0  0  0  0
  3  4  1  0  0  0  0
  4  5  1  0  0  0  0
  5  6  1  0  0  0  0
  5  7  2  0  0  0  0
  1  9  1  0  0  0  0
  1 10  1  0  0  0  0
  1 11  1  0  0  0  0
  2 12  1  0  0  0  0
  2 13  1  0  0  0  0
  3 14  1  0  0  0  0
  3 15  1  0  0  0  0
  4 16  1  0  0  0  0
  4 17  1  0  0  0  0
  6 18  1  0  0  0  0
M  END
