22
 xtb: 6.5.1 (fef0646)
N           -1.39880260184019        1.24112755977211       -1.25285731129002
C           -0.73911706591812        2.21886434890381       -0.33589416236484
C           -0.07985841998839        1.51673821369298        0.85243889037713
C            0.91807868097527        0.47820818556573        0.43098225943356
C            0.52156787891861       -0.83478901826548        0.21524269717983
C            1.42668663064803       -1.78596739239459       -0.21131874398317
C            2.74331424716611       -1.43421367275411       -0.43343150349867
C            3.14953101671663       -0.12998304109248       -0.23224216667982
C            2.24152197466645        0.82062051094585        0.19352391814621
Cl          -2.98901015421578       -0.95580673251121        0.39246974015971
H           -0.61058261418256        0.74179155484169       -1.77733374422750
H           -1.86453269892792        1.80748446832960       -2.04801821196086
H           -1.97188533678603        0.65561745685488       -0.82331720927033
H           -1.45218604588469        2.97739510021761        0.01203831720758
H            0.06512800647971        2.84824988283838       -0.84837857017879
H           -0.88163737148670        1.02983032947267        1.42676392349030
H            0.38888723646996        2.22072423410364        1.53869411399058
H           -0.51534302583437       -1.10469775486401        0.37419329258298
H            1.10435289460085       -2.80462468712655       -0.36747532353007
H            3.44990190935555       -2.17376078060945       -0.76480351715276
H            4.17026583129938        0.15307912454193       -0.41631061011549
H            2.54536313213351        1.84480725045002        0.33362053750261
