  15

 N         -1.8073045807       -0.0001099291        0.2003154072
 C         -0.4670118533        0.0002389274       -0.4648325313
 C          0.5137019161       -1.0859669704        0.0373931906
 C          1.6110625267       -0.0000475085        0.1409010314
 C          0.5137870681        1.0860195409        0.0381874343
 H         -2.3377779236       -0.8317588970       -0.0698908292
 H         -2.3388101001        0.8304967868       -0.0710058675
 H         -1.7071994541        0.0006332320        1.2187793125
 H         -0.5625472269        0.0006123555       -1.5645186036
 H          0.7233147437       -1.8835249426       -0.6871804504
 H          0.2176148912       -1.5091987313        1.0033542141
 H          2.3066368218        0.0003588757       -0.7079441668
 H          2.1641159132       -0.0004163932        1.0896907994
 H          0.7232596991        1.8840905015       -0.6858584273
 H          0.2168952545        1.5085931869        1.0042050352
          15
        -16.24022475
 N         -1.8096223269       -0.0000487080        0.1964501255
 C         -0.4697349289        0.0002703564       -0.4698004785
 C          0.5114915249       -1.0862058434        0.0314040353
 C          1.6083685691       -0.0002390320        0.1373530011
 C          0.5117953561        1.0861920550        0.0315764451
 H         -2.3396281966        0.8327380940       -0.0710490668
 H         -1.7076366347       -0.0030259605        1.2147390693
 H         -2.3424515219       -0.8297354170       -0.0756283169
 H         -0.5656919250        0.0008952580       -1.5692409721
 H          0.7223056618       -1.8823404640       -0.6944277452
 H          0.2147111464       -1.5114252359        0.9962289961
 H          2.3062296473       -0.0003347185       -0.7094912548
 H          2.1585979918       -0.0002017367        1.0876718077
 H          0.7227227259        1.8821956086       -0.6941941179
 H          0.2157103038        1.5117024892        0.9965406514
