  15

 N          1.0767000000       -0.0292000000        0.1035200000
 C          2.5417400000       -0.0276900000        0.0305200000
 C          3.2049200000       -1.0984600000        0.9261100000
 C          4.2575600000       -0.0313500000        1.2932500000
 C          3.2013600000        1.0351100000        0.9363400000
 H          0.6692400000       -0.7775300000       -0.4745500000
 H          0.6784800000        0.8557300000       -0.2351300000
 H          0.7272900000       -0.1675300000        1.0610400000
 H          2.9087700000       -0.0179100000       -1.0015200000
 H          3.5922100000       -1.9778600000        0.4045000000
 H          2.6030600000       -1.4291900000        1.7806900000
 H          5.1305500000       -0.0272500000        0.6313800000
 H          4.5957000000       -0.0352000000        2.3324400000
 H          3.5859500000        1.9196700000        0.4218800000
 H          2.5957500000        1.3572000000        1.7922300000
