36
 xtb: 6.5.1 (fef0646)
N           -6.23867985924234       -0.02698037495380        0.27261695337922
C           -4.76412439411539       -0.06355278899361        0.05436140888979
C           -4.04275806522669        1.12354250759621        0.68340173784996
C           -2.56079079212434        1.09939367658968        0.44484820184819
C           -2.01181853394583        1.72010405563569       -0.66747264444429
C           -0.65500127961163        1.67559465509736       -0.90290256334913
C            0.20365686050502        0.99834587383715       -0.03712853814196
C            1.63374056329840        0.97657992232062       -0.31817278599506
C            2.54743253727548        0.26113143401315        0.35626424432754
C            3.97626778685881        0.23222716192610        0.07265566648419
C            4.81584828393819       -0.53813671752158        0.87724877096503
C            6.17529301724988       -0.60983954200647        0.64420125669280
F            6.97171666843761       -1.37175609851121        1.44396933732102
C            6.71753161977501        0.10447926537755       -0.40975885645240
C            5.90792982741049        0.87543756200109       -1.21824786829051
C            4.55157436950074        0.94022242039692       -0.98401737012806
C           -0.35662985428313        0.36830785965874        1.07464770420424
C           -1.71435630734952        0.41760009798017        1.30670319797113
Cl          -7.73825177336126       -2.75400104721511       -1.22904486270243
H           -6.71566861570017       -0.81302686244418       -0.14352992124814
H           -6.64436454493789        0.85038185559679       -0.11811544788436
H           -6.45722761490320       -0.00694910692194        1.29349340715948
H           -4.55634939009409       -0.08231199721597       -1.01526468589386
H           -4.35869335261000       -0.98677136527950        0.46184621589466
H           -4.23090205073590        1.15941262749608        1.76502404949108
H           -4.45193437470365        2.06960342365765        0.29873452196907
H           -2.66052123597337        2.22828114800756       -1.36092888183127
H           -0.24618837467931        2.13637358090096       -1.78930078686164
H            1.95093162082382        1.51314148273363       -1.19391358775396
H            2.22938070607748       -0.30251768794675        1.21606122414519
H            4.40510105100040       -1.11265906608664        1.68701872642210
H            7.77916826774953        0.05289940694481       -0.57982921722506
H            6.34424659387795        1.45976860520118       -2.01272405484666
H            3.93993909491845        1.57940841355066       -1.59545104835762
H            0.27785547052034       -0.16042867965882        1.76400704509553
H           -2.12878300046225       -0.06264458868442        2.17428795483087
