  24

 N          0.9331436201       -0.2404304757        0.0197968091
 C          2.4124493672       -0.0662403676       -0.0132103068
 C          2.9475795449        0.1007211314        1.3844724018
 C          3.3037030294       -1.0382402406        2.1340013281
 C          3.7668546356       -0.9123717077        3.4126641046
 C          3.0627167383        1.3462030453        1.9460008321
 C          3.5338108155        1.5093123724        3.2642609544
 C          3.8923657186        0.3580671745        4.0139638350
 C          4.3662475638        0.5216106374        5.3320477410
 C          4.4765912162        1.7680572006        5.8825112049
 C          4.1193663076        2.9066379431        5.1415857987
 C          3.6587040075        2.7815260681        3.8610403321
 H          0.5616705161       -0.3606805479       -0.9297605889
 H          0.4919640727        0.5820213044        0.4479088333
 H          0.6862381863       -1.0646723958        0.5804368165
 H          2.6511866098        0.8139051369       -0.6096284042
 H          2.8614590699       -0.9431260459       -0.4792925282
 H          3.2270947116       -2.0178940313        1.6877496893
 H          4.0481078110       -1.7836436138        3.9855154179
 H          2.8082173936        2.2335807810        1.3857018463
 H          4.6417410085       -0.3549270722        5.9008827264
 H          4.8406090992        1.8877985326        6.8924654076
 H          4.2143131134        3.8818253259        5.5960021820
 H          3.3862558430        3.6578398447        3.2913635669
