 xtb: 6.5.1 (fef0646)
          02032320153D

 26 25  0     0  0            999 V2000
   -2.3330   -0.9449   -1.4712 N   0  0  0  0  0  0  0  0  0  0  0  0
   -2.0983   -2.0671   -0.5181 C   0  0  0  0  0  0  0  0  0  0  0  0
   -1.4108   -1.5996    0.7628 C   0  0  0  0  0  0  0  0  0  0  0  0
   -0.1092   -0.9008    0.5049 C   0  0  0  0  0  0  0  0  0  0  0  0
   -0.0624    0.4792    0.3755 C   0  0  0  0  0  0  0  0  0  0  0  0
    1.1241    1.1213    0.1061 C   0  0  0  0  0  0  0  0  0  0  0  0
    2.3135    0.4064   -0.0510 C   0  0  0  0  0  0  0  0  0  0  0  0
    3.4765    1.1342   -0.3227 O   0  0  0  0  0  0  0  0  0  0  0  0
    4.6451    0.3549   -0.4603 C   0  0  0  0  0  0  0  0  0  0  0  0
    2.2559   -0.9844    0.0718 C   0  0  0  0  0  0  0  0  0  0  0  0
    1.0655   -1.6212    0.3413 C   0  0  0  0  0  0  0  0  0  0  0  0
   -3.3840    1.8115    0.4645 Cl  0  0  0  0  0  0  0  0  0  0  0  0
   -2.9114   -1.2260   -2.2749 H   0  0  0  0  0  0  0  0  0  0  0  0
   -1.4386   -0.5813   -1.8352 H   0  0  0  0  0  0  0  0  0  0  0  0
   -2.8016   -0.1612   -0.9923 H   0  0  0  0  0  0  0  0  0  0  0  0
   -1.4892   -2.8359   -1.0074 H   0  0  0  0  0  0  0  0  0  0  0  0
   -3.0524   -2.5526   -0.2789 H   0  0  0  0  0  0  0  0  0  0  0  0
   -1.2394   -2.4448    1.4392 H   0  0  0  0  0  0  0  0  0  0  0  0
   -2.0752   -0.9209    1.3080 H   0  0  0  0  0  0  0  0  0  0  0  0
   -0.9732    1.0451    0.4787 H   0  0  0  0  0  0  0  0  0  0  0  0
    1.1570    2.1922    0.0079 H   0  0  0  0  0  0  0  0  0  0  0  0
    5.4864    1.0190   -0.6614 H   0  0  0  0  0  0  0  0  0  0  0  0
    4.5374   -0.3382   -1.2962 H   0  0  0  0  0  0  0  0  0  0  0  0
    4.8425   -0.1915    0.4634 H   0  0  0  0  0  0  0  0  0  0  0  0
    3.1507   -1.5682   -0.0483 H   0  0  0  0  0  0  0  0  0  0  0  0
    1.0351   -2.6946    0.4259 H   0  0  0  0  0  0  0  0  0  0  0  0
  1  2  1  0  0  0  0
  2  3  1  0  0  0  0
  3  4  1  0  0  0  0
  4  5  4  0  0  0  0
  5  6  4  0  0  0  0
  6  7  4  0  0  0  0
  7  8  1  0  0  0  0
  8  9  1  0  0  0  0
  7 10  4  0  0  0  0
  4 11  4  0  0  0  0
 10 11  4  0  0  0  0
  1 13  1  0  0  0  0
  1 14  1  0  0  0  0
  1 15  1  0  0  0  0
  2 16  1  0  0  0  0
  2 17  1  0  0  0  0
  3 18  1  0  0  0  0
  3 19  1  0  0  0  0
  5 20  1  0  0  0  0
  6 21  1  0  0  0  0
  9 22  1  0  0  0  0
  9 23  1  0  0  0  0
  9 24  1  0  0  0  0
 10 25  1  0  0  0  0
 11 26  1  0  0  0  0
M  END
