36
0.144
N           -4.40960   0.42423   1.68219
C           -4.58092   1.60817   0.79694
C           -3.98534   1.37300  -0.58921
C           -2.53845   0.97684  -0.53786
C           -1.54069   1.93774  -0.45693
C           -0.21326   1.57299  -0.36782
C            0.16103   0.22903  -0.34841
C            1.55422  -0.19720  -0.25598
C            2.59647   0.60866  -0.00677
C            3.99031   0.18359   0.08321
C            4.95604   1.08507   0.53542
C            6.28197   0.71685   0.63100
C            6.67396  -0.55858   0.27489
C            5.73515  -1.46459  -0.17905
C            4.40786  -1.09974  -0.27542
C           -0.84808  -0.73113  -0.42429
C           -2.17381  -0.36198  -0.51280
Cl          -5.10920  -2.40855  -0.23734
H           -4.90860   0.52447   2.58191
H           -3.41191   0.26548   1.89234
H           -4.75589  -0.43395   1.21321
H           -4.10572   2.47976   1.26325
H           -5.64641   1.85851   0.71572
H           -4.09497   2.26741  -1.21471
H           -4.55013   0.58623  -1.10299
H           -1.81608   2.97966  -0.46268
H            0.54212   2.33864  -0.32157
H            1.73528  -1.24992  -0.38327
H            2.41060   1.65478   0.16196
H            4.65250   2.08074   0.81491
H            7.01396   1.42625   0.98439
H            7.71127  -0.84615   0.34940
H            6.04144  -2.45984  -0.46089
H            3.68934  -1.81231  -0.64312
H           -0.58072  -1.77512  -0.40569
H           -2.94472  -1.11512  -0.54939
