20
 xtb: 6.5.1 (fef0646)
N           -2.62863962167103        0.72694197005134       -0.06318918627593
C           -1.33930976640815        0.09220997755713       -0.47937225987302
C           -0.49463045689079       -0.35148286831695        0.71129652404969
C            0.76044950357689       -1.14616543727747        0.32915500942271
C            1.75267995596130       -0.39384193131198       -0.56679451302747
C            2.33777682516265        0.85829805576654        0.07644096661107
H           -3.13425608401680        1.12142011974150       -0.87520079009715
H           -2.41850114126115        1.51885765356410        0.58783722841837
H           -3.25121256931366        0.07581800823746        0.42671243641811
H           -0.80084249069128        0.73609977061897       -1.14217270012014
H           -1.60707082962446       -0.81327673190928       -1.09059670213107
H           -1.10170095748123       -0.93924643009786        1.39489410033855
H           -0.20679107057335        0.54248877265658        1.26790700504256
H            0.44882600233019       -2.06139985161681       -0.20299683337120
H            1.27546035475081       -1.48005458726346        1.21561512635182
H            1.27232435163890       -0.08649636843504       -1.50850562573354
H            2.56731662794673       -1.05365327044528       -0.87057970250935
H            1.59117429374044        1.59326863662867        0.33759174758024
H            3.09856948869774        1.33789775710674       -0.52483010064312
H            2.84479772225479        0.58357293776714        1.04408683166324
