 xtb: 6.5.1 (fef0646)
          01242317103D

 20 19  0     0  0            999 V2000
   -2.6264    0.7455   -0.0587 N   0  0  0  0  0  0  0  0  0  0  0  0
   -1.3711    0.0543   -0.4837 C   0  0  0  0  0  0  0  0  0  0  0  0
   -0.4926   -0.3476    0.6961 C   0  0  0  0  0  0  0  0  0  0  0  0
    0.7585   -1.1413    0.3008 C   0  0  0  0  0  0  0  0  0  0  0  0
    1.7583   -0.3707   -0.5700 C   0  0  0  0  0  0  0  0  0  0  0  0
    2.3611    0.8461    0.1193 C   0  0  0  0  0  0  0  0  0  0  0  0
   -3.1984    1.0097   -0.8663 H   0  0  0  0  0  0  0  0  0  0  0  0
   -2.4088    1.5957    0.4692 H   0  0  0  0  0  0  0  0  0  0  0  0
   -3.1884    0.1362    0.5426 H   0  0  0  0  0  0  0  0  0  0  0  0
   -0.8143    0.7086   -1.1630 H   0  0  0  0  0  0  0  0  0  0  0  0
   -1.6293   -0.8338   -1.0716 H   0  0  0  0  0  0  0  0  0  0  0  0
   -1.0957   -0.9358    1.3973 H   0  0  0  0  0  0  0  0  0  0  0  0
   -0.2050    0.5473    1.2567 H   0  0  0  0  0  0  0  0  0  0  0  0
    0.4471   -2.0555   -0.2184 H   0  0  0  0  0  0  0  0  0  0  0  0
    1.2734   -1.4864    1.2053 H   0  0  0  0  0  0  0  0  0  0  0  0
    1.2743   -0.0670   -1.5054 H   0  0  0  0  0  0  0  0  0  0  0  0
    2.5658   -1.0469   -0.8799 H   0  0  0  0  0  0  0  0  0  0  0  0
    1.6006    1.5887    0.3619 H   0  0  0  0  0  0  0  0  0  0  0  0
    3.1047    1.3405   -0.5083 H   0  0  0  0  0  0  0  0  0  0  0  0
    2.8533    0.5671    1.0517 H   0  0  0  0  0  0  0  0  0  0  0  0
  1  2  1  0  0  0  0
  2  3  1  0  0  0  0
  3  4  1  0  0  0  0
  4  5  1  0  0  0  0
  5  6  1  0  0  0  0
  1  7  1  0  0  0  0
  1  8  1  0  0  0  0
  1  9  1  0  0  0  0
  2 10  1  0  0  0  0
  2 11  1  0  0  0  0
  3 12  1  0  0  0  0
  3 13  1  0  0  0  0
  4 14  1  0  0  0  0
  4 15  1  0  0  0  0
  5 16  1  0  0  0  0
  5 17  1  0  0  0  0
  6 18  1  0  0  0  0
  6 19  1  0  0  0  0
  6 20  1  0  0  0  0
M  CHG  1   1   1
M  END
