 xtb: 6.5.1 (fef0646)
          01242310123D

 29 29  0     0  0            999 V2000
   -2.1068    0.8552    1.3602 N   0  0  0  0  0  0  0  0  0  0  0  0
   -2.7377    1.5925    0.2347 C   0  0  0  0  0  0  0  0  0  0  0  0
   -1.8669    1.5705   -1.0126 C   0  0  0  0  0  0  0  0  0  0  0  0
   -1.8353    0.2894   -1.6538 O   0  0  0  0  0  0  0  0  0  0  0  0
   -1.0720   -0.6929   -0.9958 C   0  0  0  0  0  0  0  0  0  0  0  0
   -1.7072   -1.8140   -0.4802 C   0  0  0  0  0  0  0  0  0  0  0  0
   -1.0211   -2.7443    0.2921 C   0  0  0  0  0  0  0  0  0  0  0  0
    0.3145   -2.5904    0.5427 C   0  0  0  0  0  0  0  0  0  0  0  0
    1.0290   -1.5068   -0.0090 C   0  0  0  0  0  0  0  0  0  0  0  0
    2.4172   -1.3493    0.1964 C   0  0  0  0  0  0  0  0  0  0  0  0
    3.0965   -0.3214   -0.3926 C   0  0  0  0  0  0  0  0  0  0  0  0
    2.4275    0.5835   -1.2201 C   0  0  0  0  0  0  0  0  0  0  0  0
    1.0818    0.4631   -1.4301 C   0  0  0  0  0  0  0  0  0  0  0  0
    0.3440   -0.5625   -0.8113 C   0  0  0  0  0  0  0  0  0  0  0  0
    1.1171    1.9913    1.9066 Cl  0  0  0  0  0  0  0  0  0  0  0  0
   -1.9436   -0.1280    1.0907 H   0  0  0  0  0  0  0  0  0  0  0  0
   -2.6844    0.8623    2.2169 H   0  0  0  0  0  0  0  0  0  0  0  0
   -1.1809    1.2538    1.5900 H   0  0  0  0  0  0  0  0  0  0  0  0
   -2.9362    2.6260    0.5447 H   0  0  0  0  0  0  0  0  0  0  0  0
   -3.7135    1.1519    0.0024 H   0  0  0  0  0  0  0  0  0  0  0  0
   -0.8460    1.8716   -0.7626 H   0  0  0  0  0  0  0  0  0  0  0  0
   -2.2325    2.2811   -1.7632 H   0  0  0  0  0  0  0  0  0  0  0  0
   -2.7634   -1.9258   -0.6557 H   0  0  0  0  0  0  0  0  0  0  0  0
   -1.5499   -3.5909    0.7010 H   0  0  0  0  0  0  0  0  0  0  0  0
    0.8415   -3.3105    1.1465 H   0  0  0  0  0  0  0  0  0  0  0  0
    2.9362   -2.0584    0.8196 H   0  0  0  0  0  0  0  0  0  0  0  0
    4.1575   -0.2133   -0.2306 H   0  0  0  0  0  0  0  0  0  0  0  0
    2.9788    1.3765   -1.7002 H   0  0  0  0  0  0  0  0  0  0  0  0
    0.5779    1.1330   -2.1060 H   0  0  0  0  0  0  0  0  0  0  0  0
  1  2  1  0  0  0  0
  2  3  1  0  0  0  0
  3  4  1  0  0  0  0
  4  5  1  0  0  0  0
  5  6  4  0  0  0  0
  6  7  4  0  0  0  0
  7  8  2  0  0  0  0
  8  9  4  0  0  0  0
  9 10  4  0  0  0  0
 10 11  2  0  0  0  0
 11 12  4  0  0  0  0
 12 13  2  0  0  0  0
  5 14  4  0  0  0  0
  9 14  4  0  0  0  0
 13 14  4  0  0  0  0
  1 16  1  0  0  0  0
  1 17  1  0  0  0  0
  1 18  1  0  0  0  0
  2 19  1  0  0  0  0
  2 20  1  0  0  0  0
  3 21  1  0  0  0  0
  3 22  1  0  0  0  0
  6 23  1  0  0  0  0
  7 24  1  0  0  0  0
  8 25  1  0  0  0  0
 10 26  1  0  0  0  0
 11 27  1  0  0  0  0
 12 28  1  0  0  0  0
 13 29  1  0  0  0  0
M  END
