19

N          1.87835       -0.02945        0.20969
C          0.70022        0.08598       -0.65423
C         -0.13249       -1.19283       -0.59559
C         -1.31170       -0.85600        0.30710
C         -1.58298        0.60666        0.00308
C         -0.19829        1.22238       -0.15973
Cl         1.82507       -0.60296        3.02042
H          2.50757       -0.80994        0.00130
H          1.61641       -0.24350        1.21830
H          2.43329        0.82204        0.32415
H          1.07770        0.27218       -1.66373
H          0.41990       -2.06891       -0.24127
H         -0.50680       -1.42505       -1.60045
H         -1.03873       -0.98216        1.35993
H         -2.18006       -1.48970        0.10493
H         -2.16092        1.09426        0.79332
H         -2.14532        0.69792       -0.93374
H          0.14346        1.63474        0.79755
H         -0.22504        2.05064       -0.87525
