28
 xtb: 6.5.1 (fef0646)
N           -1.64053785848013       -0.62349864591639        0.54684470458245
C           -1.13927521165569       -0.66657446760494       -0.85767849091983
C            0.24250217119176       -1.30385476446725       -0.93573406584904
C            1.32547381040045       -0.54663981479377       -0.14761990939602
C            1.58688502664769        0.87060815176328       -0.71178608113226
C            2.67318085910069        1.60829788116272        0.09045061999254
C            3.97793464931955        0.79421822223021        0.13592764565178
C            3.72940321420216       -0.61378537371125        0.70360146841758
C            2.64795073986566       -1.34894925925066       -0.10569204611781
Cl          -5.20869391735792        0.79178362004283        0.46327017376751
H           -1.73580415472237       -1.52418882454839        0.95504326251658
H           -2.66484912727435       -0.20454280167043        0.54889114093953
H           -1.12538994613967        0.00976768460317        1.13481173032838
H           -1.13044387702845        0.36139172745576       -1.28464769440712
H           -1.86660087073963       -1.20128622869211       -1.49472607943984
H            0.54093887705548       -1.39635460345772       -1.96054491729367
H            0.14655879600596       -2.31792894066885       -0.53558901805749
H            0.96850343065985       -0.41701859942661        0.90213691637333
H            0.65061774560342        1.46361748930610       -0.73244204416632
H            1.88523208805204        0.77682301978668       -1.75575333471976
H            2.31312491184942        1.78356617989512        1.11184131723648
H            2.84974732250027        2.60782415594347       -0.33112002340007
H            4.74016824107344        1.31348685032519        0.71411206705400
H            4.37726582276633        0.70133592214837       -0.88118314733432
H            3.39808994777116       -0.53154608088194        1.75076199555964
H            4.64313031103165       -1.20287487657214        0.72596344936981
H            2.44390640967977       -2.35147494966035        0.30376959563246
H            2.97090808570377       -1.50524245572766       -1.12759033163983
