39
 xtb: 6.5.1 (fef0646)
N            7.73618245833995       -1.64268039928548        1.18002243446257
C            8.18629042649342       -0.27184535407173        0.80588250669390
C            7.53174383348553        0.21523043527123       -0.48569948816569
C            6.07041800925838        0.46188897762426       -0.33572229339006
C            5.49045389442487        1.67368032530099       -0.07563641826006
C            4.08373142343380        1.63175250633680       -0.00397454512874
C            3.55391891495247        0.37498724281277       -0.20792701309511
C            2.16969655323690        0.04120203976583       -0.20378224281980
C            1.63902604793793       -1.22928740124395       -0.37364566382529
C            0.24758482305795       -1.27554943195895       -0.31875426734166
C           -0.35072912626189       -0.04028806356063       -0.10681186402914
C           -1.74330781276182        0.20544481306093       -0.01973289394758
C           -2.34159193673867        1.44664789823669        0.15271780056882
C           -3.73358557590775        1.40384919506754        0.19540596081947
C           -4.26434537072303        0.12899594793148        0.06227798914971
C           -5.64845398089529       -0.20250901009905        0.07761766159388
C           -6.18118790330320       -1.47371676270642        0.00379515765597
C           -7.59062384997869       -1.49968809261841        0.03345596560248
C           -8.15546805700765       -0.26223611497970        0.12549482254384
S           -6.94992479002676        0.96388556868454        0.13100136487880
S           -2.97453401015946       -1.01779231670951       -0.10485130150660
S            0.87923502558907        1.17639535949341        0.04236752354989
S            4.84744074079846       -0.74912056088424       -0.51493261724370
H            8.05125788962980       -2.33652952884595        0.51449408206171
H            6.68965298496754       -1.67173931033917        1.18826903456630
H            8.05121604023050       -1.91289846198202        2.12764138756374
H            9.26969354261281       -0.26259734324021        0.72890074425603
H            7.93286134188272        0.43754810065791        1.61644408775700
H            7.69362969006553       -0.53592285573377       -1.27358260482034
H            8.02169851420930        1.12664070673643       -0.84600302188985
H            6.05898586816917        2.59170796966311       -0.04125789524359
H            3.46788571537096        2.51025727150375        0.09934417397063
H            2.25978350353730       -2.10482660211151       -0.50147349482633
H           -0.32102112070948       -2.18968005334294       -0.39940544672186
H           -1.76822737142483        2.35358456010299        0.27286146328787
H           -4.34985461320257        2.27548220243435        0.34978688266276
H           -5.57199203918309       -2.34657302605401       -0.18370769633185
H           -8.16821005132070       -2.40033286231228       -0.12202726022242
H           -9.20881266534527       -0.05778823683799        0.17114267562505
