 xtb: 6.5.1 (fef0646)
          01242310083D

 39 42  0     0  0            999 V2000
    7.7123   -1.6294    1.1953 N   0  0  0  0  0  0  0  0  0  0  0  0
    8.1711   -0.2640    0.8135 C   0  0  0  0  0  0  0  0  0  0  0  0
    7.5340    0.2106   -0.4911 C   0  0  0  0  0  0  0  0  0  0  0  0
    6.0718    0.4618   -0.3622 C   0  0  0  0  0  0  0  0  0  0  0  0
    5.4886    1.6813   -0.1611 C   0  0  0  0  0  0  0  0  0  0  0  0
    4.0821    1.6391   -0.0811 C   0  0  0  0  0  0  0  0  0  0  0  0
    3.5549    0.3743   -0.2180 C   0  0  0  0  0  0  0  0  0  0  0  0
    2.1718    0.0380   -0.1938 C   0  0  0  0  0  0  0  0  0  0  0  0
    1.6418   -1.2356   -0.3392 C   0  0  0  0  0  0  0  0  0  0  0  0
    0.2503   -1.2813   -0.2850 C   0  0  0  0  0  0  0  0  0  0  0  0
   -0.3487   -0.0429   -0.0951 C   0  0  0  0  0  0  0  0  0  0  0  0
   -1.7412    0.2033   -0.0094 C   0  0  0  0  0  0  0  0  0  0  0  0
   -2.3386    1.4422    0.1812 C   0  0  0  0  0  0  0  0  0  0  0  0
   -3.7307    1.4001    0.2215 C   0  0  0  0  0  0  0  0  0  0  0  0
   -4.2626    0.1287    0.0640 C   0  0  0  0  0  0  0  0  0  0  0  0
   -5.6474   -0.1998    0.0607 C   0  0  0  0  0  0  0  0  0  0  0  0
   -6.1829   -1.4600   -0.0935 C   0  0  0  0  0  0  0  0  0  0  0  0
   -7.5922   -1.4863   -0.0576 C   0  0  0  0  0  0  0  0  0  0  0  0
   -8.1541   -0.2605    0.1231 C   0  0  0  0  0  0  0  0  0  0  0  0
   -6.9433    0.9490    0.2526 S   0  0  0  0  0  0  0  0  0  0  0  0
   -2.9733   -1.0148   -0.1319 S   0  0  0  0  0  0  0  0  0  0  0  0
    0.8814    1.1772    0.0200 S   0  0  0  0  0  0  0  0  0  0  0  0
    4.8551   -0.7635   -0.4309 S   0  0  0  0  0  0  0  0  0  0  0  0
    8.0489   -2.3352    0.5230 H   0  0  0  0  0  0  0  0  0  0  0  0
    6.6830   -1.6679    1.1858 H   0  0  0  0  0  0  0  0  0  0  0  0
    8.0392   -1.9063    2.1345 H   0  0  0  0  0  0  0  0  0  0  0  0
    9.2656   -0.2608    0.7352 H   0  0  0  0  0  0  0  0  0  0  0  0
    7.9256    0.4422    1.6157 H   0  0  0  0  0  0  0  0  0  0  0  0
    7.6970   -0.5399   -1.2722 H   0  0  0  0  0  0  0  0  0  0  0  0
    8.0236    1.1241   -0.8488 H   0  0  0  0  0  0  0  0  0  0  0  0
    6.0577    2.5956   -0.0799 H   0  0  0  0  0  0  0  0  0  0  0  0
    3.4669    2.5140    0.0649 H   0  0  0  0  0  0  0  0  0  0  0  0
    2.2607   -2.1074   -0.4867 H   0  0  0  0  0  0  0  0  0  0  0  0
   -0.3201   -2.1919   -0.3849 H   0  0  0  0  0  0  0  0  0  0  0  0
   -1.7671    2.3516    0.2857 H   0  0  0  0  0  0  0  0  0  0  0  0
   -4.3488    2.2739    0.3611 H   0  0  0  0  0  0  0  0  0  0  0  0
   -5.5731   -2.3403   -0.2295 H   0  0  0  0  0  0  0  0  0  0  0  0
   -8.1692   -2.3943   -0.1640 H   0  0  0  0  0  0  0  0  0  0  0  0
   -9.2081   -0.0583    0.1792 H   0  0  0  0  0  0  0  0  0  0  0  0
  1  2  1  0  0  0  0
  2  3  1  0  0  0  0
  3  4  1  0  0  0  0
  4  5  2  0  0  0  0
  5  6  4  0  0  0  0
  6  7  4  0  0  0  0
  7  8  1  0  0  0  0
  8  9  4  0  0  0  0
  9 10  4  0  0  0  0
 10 11  4  0  0  0  0
 11 12  1  0  0  0  0
 12 13  4  0  0  0  0
 13 14  4  0  0  0  0
 14 15  4  0  0  0  0
 15 16  1  0  0  0  0
 16 17  4  0  0  0  0
 17 18  4  0  0  0  0
 18 19  2  0  0  0  0
 16 20  1  0  0  0  0
 19 20  1  0  0  0  0
 12 21  1  0  0  0  0
 15 21  1  0  0  0  0
  8 22  1  0  0  0  0
 11 22  1  0  0  0  0
  4 23  1  0  0  0  0
  7 23  1  0  0  0  0
  1 24  1  0  0  0  0
  1 25  1  0  0  0  0
  1 26  1  0  0  0  0
  2 27  1  0  0  0  0
  2 28  1  0  0  0  0
  3 29  1  0  0  0  0
  3 30  1  0  0  0  0
  5 31  1  0  0  0  0
  6 32  1  0  0  0  0
  9 33  1  0  0  0  0
 10 34  1  0  0  0  0
 13 35  1  0  0  0  0
 14 36  1  0  0  0  0
 17 37  1  0  0  0  0
 18 38  1  0  0  0  0
 19 39  1  0  0  0  0
M  CHG  1   1   1
M  END
