  22

 N         -2.2315363715       -1.1734858189        0.3269434611
 C         -0.9627483239       -0.4208451230        0.1064416317
 C          0.2731799509       -1.2678571822        0.3892685988
 C          1.5563885375       -0.5198025245        0.1687686372
 C          2.1022114413        0.2582776411        1.1797159414
 C          3.2669641312        0.9698231231        0.9706888814
 C          3.8981587165        0.9169237553       -0.2557683675
 C          3.3599505182        0.1550779616       -1.2732695701
 C          2.1946875222       -0.5553954786       -1.0628079085
 Cl        -4.9622568885        0.9524419038       -0.3107020876
 H         -3.0633062915       -0.5845707751        0.1425680182
 H         -2.2944589138       -1.5119435657        1.2966682791
 H         -2.2845497123       -1.9950887321       -0.2905250783
 H         -0.9469530752        0.4746224679        0.7388179782
 H         -0.9250153776       -0.0488094025       -0.9241899877
 H          0.2597686432       -2.1640835438       -0.2400912142
 H          0.2404807002       -1.6384671357        1.4194126554
 H          1.6044405178        0.3035334895        2.1339658068
 H          3.6827825210        1.5681881326        1.7655024082
 H          4.8082673447        1.4715434038       -0.4193782065
 H          3.8485500394        0.1163084384       -2.2336830441
 H          1.7686397085       -1.1433445775       -1.8585546860
          22
        -30.74010784
 N         -1.2341549148       -1.5073788986        1.2652818786
 C         -0.6740047975       -2.3000809061        0.1335954054
 C         -0.1536188102       -1.4063636872       -0.9907909127
 C          0.8777712204       -0.4221291478       -0.5227949266
 C          2.2104741576       -0.7907917170       -0.4115504200
 C          3.1523007944        0.1059497588        0.0528284495
 C          2.7711264295        1.3817236660        0.4173457581
 C          1.4466520048        1.7578284741        0.3198496692
 C          0.5066734421        0.8599040806       -0.1442828350
 Cl        -3.0796857015        1.1183953543       -0.1760914811
 H         -1.6972802077       -2.1003269492        1.9732331327
 H         -1.9212634597       -0.8215699219        0.9165985982
 H         -0.4918035284       -0.9717661730        1.7362189435
 H         -1.4389301893       -2.9855555139       -0.2516423610
 H          0.1357372784       -2.9393955604        0.5043467799
 H         -0.9892771114       -0.8580713777       -1.4392733608
 H          0.2662301448       -2.0118516167       -1.8025033683
 H          2.5039768701       -1.7893387877       -0.6892681217
 H          4.1856286008       -0.1914953303        0.1327212392
 H          3.5062908308        2.0819112175        0.7805881494
 H          1.1452945629        2.7517348741        0.6095826630
 H         -0.5309948909        1.1437922302       -0.2057455321
