  22

 N          0.9479058039       -0.3412541632       -0.0073701901
 C          2.4212106624       -0.3099854970       -0.0833133772
 C          3.0172172238       -1.6950617336        0.1787880764
 C          4.5196384320       -1.6137584548        0.1528273091
 C          5.2214890454       -1.2393559363        1.2918747926
 C          6.6001394801       -1.1281621774        1.2656035610
 C          7.2953764249       -1.3894241557        0.0966808081
 C          6.6045752528       -1.7631632525       -1.0435055297
 C          5.2251354762       -1.8723585172       -1.0148315458
 Cl        -0.1427785474        2.4492431624       -0.5444014341
 H          0.5553324905        0.6159133280       -0.2003472261
 H          0.6378643606       -0.6186727775        0.9264033247
 H          0.5564503063       -0.9819390027       -0.7019031538
 H          2.7928689061        0.4052904347        0.6494762086
 H          2.7138454717        0.0459173393       -1.0705856054
 H          2.6801000900       -2.3938842629       -0.5864071395
 H          2.6949480457       -2.0558212594        1.1555764199
 H          4.6879842724       -1.0362647638        2.2086016218
 H          7.1354355148       -0.8378138043        2.1577155184
 H          8.3715955577       -1.3029070247        0.0750867575
 H          7.1431073646       -1.9697658552       -1.9567042502
 H          4.6953083655       -2.1653416263       -1.9091949462
