17
0.0
N           -4.33532  -0.97034  -0.17680
C           -3.48853   0.12184   0.39252
C           -2.12570   0.22873  -0.28558
C           -1.24779   1.34978   0.28952
C            0.11088   1.46118  -0.37998
I            1.33245  -0.22665   0.02318
H           -4.50324  -0.81347  -1.17436
H           -5.24269  -1.01942   0.29496
H           -3.87253  -1.87743  -0.07214
H           -3.35583  -0.04723   1.46750
H           -4.02242   1.07527   0.30503
H           -2.26520   0.38761  -1.36024
H           -1.60365  -0.73054  -0.20242
H           -1.11287   1.19254   1.36816
H           -1.78412   2.30492   0.20154
H            0.67394   2.32611  -0.02277
H            0.01967   1.54875  -1.46374
