 xtb: 6.5.1 (fef0646)
          01242317123D

 17 16  0     0  0            999 V2000
   -4.3353   -0.9703   -0.1768 N   0  0  0  0  0  0  0  0  0  0  0  0
   -3.4885    0.1219    0.3925 C   0  0  0  0  0  0  0  0  0  0  0  0
   -2.1257    0.2287   -0.2856 C   0  0  0  0  0  0  0  0  0  0  0  0
   -1.2478    1.3498    0.2895 C   0  0  0  0  0  0  0  0  0  0  0  0
    0.1109    1.4612   -0.3800 C   0  0  0  0  0  0  0  0  0  0  0  0
    1.3324   -0.2267    0.0232 I   0  0  0  0  0  0  0  0  0  0  0  0
   -4.5032   -0.8134   -1.1743 H   0  0  0  0  0  0  0  0  0  0  0  0
   -5.2427   -1.0194    0.2950 H   0  0  0  0  0  0  0  0  0  0  0  0
   -3.8725   -1.8774   -0.0721 H   0  0  0  0  0  0  0  0  0  0  0  0
   -3.3558   -0.0472    1.4675 H   0  0  0  0  0  0  0  0  0  0  0  0
   -4.0224    1.0753    0.3050 H   0  0  0  0  0  0  0  0  0  0  0  0
   -2.2652    0.3876   -1.3602 H   0  0  0  0  0  0  0  0  0  0  0  0
   -1.6037   -0.7305   -0.2024 H   0  0  0  0  0  0  0  0  0  0  0  0
   -1.1129    1.1925    1.3682 H   0  0  0  0  0  0  0  0  0  0  0  0
   -1.7841    2.3049    0.2015 H   0  0  0  0  0  0  0  0  0  0  0  0
    0.6740    2.3261   -0.0228 H   0  0  0  0  0  0  0  0  0  0  0  0
    0.0197    1.5487   -1.4637 H   0  0  0  0  0  0  0  0  0  0  0  0
  1  2  1  0  0  0  0
  2  3  1  0  0  0  0
  3  4  1  0  0  0  0
  4  5  1  0  0  0  0
  5  6  1  0  0  0  0
  1  7  1  0  0  0  0
  1  8  1  0  0  0  0
  1  9  1  0  0  0  0
  2 10  1  0  0  0  0
  2 11  1  0  0  0  0
  3 12  1  0  0  0  0
  3 13  1  0  0  0  0
  4 14  1  0  0  0  0
  4 15  1  0  0  0  0
  5 16  1  0  0  0  0
  5 17  1  0  0  0  0
M  CHG  1   1   1
M  END
