 xtb: 6.5.1 (fef0646)
          01242310113D

 17 16  0     0  0            999 V2000
   -1.7353   -1.5752   -0.3609 N   0  0  0  0  0  0  0  0  0  0  0  0
   -2.3193   -0.7469    0.7317 C   0  0  0  0  0  0  0  0  0  0  0  0
   -2.6779    0.6708    0.2910 C   0  0  0  0  0  0  0  0  0  0  0  0
   -1.5610    1.4302   -0.4440 C   0  0  0  0  0  0  0  0  0  0  0  0
   -0.2492    1.5427    0.3194 C   0  0  0  0  0  0  0  0  0  0  0  0
    0.9904   -0.1163   -0.0520 I   0  0  0  0  0  0  0  0  0  0  0  0
   -1.6085   -2.5576   -0.0694 H   0  0  0  0  0  0  0  0  0  0  0  0
   -0.7872   -1.2067   -0.6458 H   0  0  0  0  0  0  0  0  0  0  0  0
   -2.3437   -1.5785   -1.1939 H   0  0  0  0  0  0  0  0  0  0  0  0
   -1.6084   -0.7114    1.5662 H   0  0  0  0  0  0  0  0  0  0  0  0
   -3.2084   -1.2532    1.1309 H   0  0  0  0  0  0  0  0  0  0  0  0
   -2.9941    1.2542    1.1651 H   0  0  0  0  0  0  0  0  0  0  0  0
   -3.5640    0.6260   -0.3552 H   0  0  0  0  0  0  0  0  0  0  0  0
   -1.9249    2.4393   -0.6939 H   0  0  0  0  0  0  0  0  0  0  0  0
   -1.3682    0.9555   -1.4157 H   0  0  0  0  0  0  0  0  0  0  0  0
   -0.4046    1.6612    1.3929 H   0  0  0  0  0  0  0  0  0  0  0  0
    0.3554    2.3867   -0.0224 H   0  0  0  0  0  0  0  0  0  0  0  0
  1  2  1  0  0  0  0
  2  3  1  0  0  0  0
  3  4  1  0  0  0  0
  4  5  1  0  0  0  0
  5  6  1  0  0  0  0
  1  7  1  0  0  0  0
  1  8  1  0  0  0  0
  1  9  1  0  0  0  0
  2 10  1  0  0  0  0
  2 11  1  0  0  0  0
  3 12  1  0  0  0  0
  3 13  1  0  0  0  0
  4 14  1  0  0  0  0
  4 15  1  0  0  0  0
  5 16  1  0  0  0  0
  5 17  1  0  0  0  0
M  CHG  1   1   1
M  END
