 xtb: 6.5.1 (fef0646)
          01232319463D

 26 25  0     0  0            999 V2000
    2.8571   -1.3222   -1.4817 N   0  0  0  0  0  0  0  0  0  0  0  0
    2.4268   -0.0426   -2.0429 C   0  0  0  0  0  0  0  0  0  0  0  0
    3.0335    1.1046   -1.2303 C   0  0  0  0  0  0  0  0  0  0  0  0
    4.5412    1.0247   -1.1816 C   0  0  0  0  0  0  0  0  0  0  0  0
    5.2827    1.1218   -2.2778 C   0  0  0  0  0  0  0  0  0  0  0  0
    6.7747    0.9887   -2.3017 C   0  0  0  0  0  0  0  0  0  0  0  0
    7.2964    0.3570   -1.0147 C   0  0  0  0  0  0  0  0  0  0  0  0
    6.6501    1.0427    0.1829 C   0  0  0  0  0  0  0  0  0  0  0  0
    5.1442    0.7944    0.1752 C   0  0  0  0  0  0  0  0  0  0  0  0
    2.2032   -1.5134    1.3576 Cl  0  0  0  0  0  0  0  0  0  0  0  0
    2.4311   -2.1035   -1.9671 H   0  0  0  0  0  0  0  0  0  0  0  0
    2.4984   -1.4028    0.0082 H   0  0  0  0  0  0  0  0  0  0  0  0
    3.8670   -1.4012   -1.5469 H   0  0  0  0  0  0  0  0  0  0  0  0
    1.3372    0.0010   -1.9822 H   0  0  0  0  0  0  0  0  0  0  0  0
    2.7182    0.0546   -3.0975 H   0  0  0  0  0  0  0  0  0  0  0  0
    2.6355    1.0568   -0.2176 H   0  0  0  0  0  0  0  0  0  0  0  0
    2.7204    2.0484   -1.6815 H   0  0  0  0  0  0  0  0  0  0  0  0
    4.8155    1.3185   -3.2347 H   0  0  0  0  0  0  0  0  0  0  0  0
    7.2181    1.9819   -2.4324 H   0  0  0  0  0  0  0  0  0  0  0  0
    7.0743    0.3910   -3.1674 H   0  0  0  0  0  0  0  0  0  0  0  0
    8.3832    0.4469   -0.9677 H   0  0  0  0  0  0  0  0  0  0  0  0
    7.0464   -0.7065   -0.9990 H   0  0  0  0  0  0  0  0  0  0  0  0
    6.8424    2.1162    0.1236 H   0  0  0  0  0  0  0  0  0  0  0  0
    7.0826    0.6738    1.1145 H   0  0  0  0  0  0  0  0  0  0  0  0
    4.6564    1.4531    0.8975 H   0  0  0  0  0  0  0  0  0  0  0  0
    4.9286   -0.2305    0.4929 H   0  0  0  0  0  0  0  0  0  0  0  0
  1  2  1  0  0  0  0
  2  3  1  0  0  0  0
  3  4  1  0  0  0  0
  4  5  2  0  0  0  0
  5  6  1  0  0  0  0
  6  7  1  0  0  0  0
  7  8  1  0  0  0  0
  4  9  1  0  0  0  0
  8  9  1  0  0  0  0
  1 11  1  0  0  0  0
 10 12  1  0  0  0  0
  1 13  1  0  0  0  0
  2 14  1  0  0  0  0
  2 15  1  0  0  0  0
  3 16  1  0  0  0  0
  3 17  1  0  0  0  0
  5 18  1  0  0  0  0
  6 19  1  0  0  0  0
  6 20  1  0  0  0  0
  7 21  1  0  0  0  0
  7 22  1  0  0  0  0
  8 23  1  0  0  0  0
  8 24  1  0  0  0  0
  9 25  1  0  0  0  0
  9 26  1  0  0  0  0
M  END
