14
 xtb: 6.5.1 (fef0646)
N            0.26889912402185        1.34842085583189       -0.92458392299250
C            1.04286957163178        1.50831921909110        0.33699881266778
C            1.35897249999221        0.16186714154473        0.99095518329951
C            2.12031190402948       -0.71946356496375        0.16425327731162
C            2.76327661916078       -1.45223863664058       -0.56132691444584
Cl          -2.87123755217096       -0.56545087145960        0.07789008969883
H           -0.08031467804512        2.18994390876057       -1.34416708505148
H           -0.69999982406956        0.79614721052126       -0.66284570374218
H            0.67661014900624        0.72096275249859       -1.58790158164546
H            0.46513346712797        2.13788745631086        1.03574688390019
H            1.91902179912075        2.02283812252668        0.06827129632988
H            0.42823091824632       -0.35863685714464        1.28899985439734
H            1.90062862142724        0.33079454185308        1.92871334261261
H            3.32759996152923       -2.09280496285806       -1.19843269663072
