16
0.055
N           -0.21981  -1.44633   1.01861
C            0.76550  -1.81118  -0.03290
C            1.23897  -0.60238  -0.82399
S            2.05008   0.62923   0.19634
C            0.71284   1.78220   0.36586
Cl          -2.80670   0.32519  -0.46595
H           -0.57782  -2.27245   1.52490
H           -1.02962  -0.95142   0.60500
H            0.20625  -0.81218   1.71577
H            0.32433  -2.55817  -0.70608
H            1.62742  -2.30369   0.43443
H            0.39858  -0.13053  -1.33979
H            1.94697  -0.90174  -1.60316
H            0.42596   2.17549  -0.60777
H            1.02136   2.61462   0.99573
H           -0.15475   1.30987   0.82151
