26
 xtb: 6.5.1 (fef0646)
N           -5.01346212493242       -1.34187443309978       -0.27242121545944
C           -5.19319853304610       -0.08010512318114        0.51262211773007
C           -4.50708268096966        1.12257693670820       -0.14145281126761
C           -3.01568233148154        1.06886549183844       -0.09901922240395
C           -2.19166783256849        2.14958306523844       -0.08321241577572
C           -0.80691290417051        1.82619174960805       -0.05017079821662
C           -0.54870020321915        0.48370871347955       -0.03921543034723
C            0.75488302056243       -0.13801449249914       -0.01916470844406
C            1.95775942082394        0.51135500331911       -0.00134322368768
C            3.07915355644302       -0.36009119215032        0.00538331488215
C            2.74227900115059       -1.66936833295100       -0.00780208088130
S            1.02398839641451       -1.86559081614615       -0.01045412537388
S           -2.06375952339999       -0.38316393356954       -0.01768228890257
Cl           6.34935808336048        0.81261302817702        0.15533795034179
H           -5.43073540398205       -1.30975688973213       -1.13885005445572
H           -5.42553166126841       -2.14516001553005        0.30426197744781
H           -4.00708791613265       -1.52734944994401       -0.31735220026951
H           -4.81580185566676       -0.15116202293012        1.54618924896613
H           -6.27371055914413        0.14163236237739        0.62821498788382
H           -4.84297712762104        2.06311351606608        0.26835276147566
H           -4.81288805749676        1.15271857920852       -1.22054789738093
H           -2.56335111832044        3.16073254850556       -0.06517805916157
H           -0.03356382340131        2.57368872393842        0.00623048803644
H            2.04691100829469        1.58587173258810        0.04240684830568
H            4.09934810839217       -0.00716226478782        0.06324952765840
H            3.43508167995049       -2.48931657908157        0.00092517295205
