18
2.805
N            0.06276  -3.28766  -0.79888
C            0.63012  -2.85333   0.50963
C           -0.41756  -2.25044   1.43926
C           -1.09387  -0.98400   0.90492
C           -0.14785   0.19524   0.72622
Br           0.93966   0.13005  -0.86734
Cl          -1.72271   3.61363   0.89331
H           -0.27593  -2.47162  -1.32946
H           -0.73026  -3.92745  -0.66279
H            0.76260  -3.76721  -1.38065
H            1.43250  -2.12780   0.33543
H            1.11385  -3.71028   0.99505
H            0.03682  -2.02661   2.41236
H           -1.17938  -3.01166   1.64732
H           -1.91008  -0.69758   1.58297
H           -1.58131  -1.19843  -0.05279
H            0.52392   0.29119   1.58114
H           -0.69829   1.13611   0.64873
