18
 xtb: 6.5.1 (fef0646)
N           -2.74874066471587       -1.75573949056407        0.23879834272186
C           -1.46756453516410       -1.99703304275137       -0.49702967678817
C           -0.51813467499888       -0.80294103061268       -0.40911118858006
C            0.01044554112370       -0.55038305095463        1.00161902654679
C            0.96540336116873        0.62867711598635        1.06382047334072
Br           2.56578113706459        0.36865054778240        0.01512984522159
Cl          -4.00663749696609        1.03396229946342       -0.61115477457797
H           -3.17547240747005       -0.97461526695704       -0.00183102242248
H           -2.51409318654868       -1.80047277512830        1.28428565014143
H           -3.35349816464498       -2.63419703063519        0.11962946984367
H           -1.67992776929358       -2.23050101486702       -1.54842518471547
H           -0.90122093196777       -2.91722018938790       -0.14447384974769
H           -1.06258373871656        0.07982506346826       -0.75572876713419
H            0.32578215176326       -0.91521325486491       -1.09433467390872
H            0.52664924368719       -1.44991111392103        1.36328442435994
H           -0.82677266054214       -0.39597859914718        1.69377175069571
H            1.28732859986301        0.83912084407979        2.08289641241784
H            0.48563714897712        1.53563168694189        0.68224448931019
