 xtb: 6.5.1 (fef0646)
          01242317093D

 18 16  0     0  0            999 V2000
   -2.6789   -1.8934    0.2870 N   0  0  0  0  0  0  0  0  0  0  0  0
   -1.4203   -2.0391   -0.4992 C   0  0  0  0  0  0  0  0  0  0  0  0
   -0.5227   -0.8081   -0.4053 C   0  0  0  0  0  0  0  0  0  0  0  0
    0.0114   -0.5522    1.0030 C   0  0  0  0  0  0  0  0  0  0  0  0
    0.9630    0.6307    1.0594 C   0  0  0  0  0  0  0  0  0  0  0  0
    2.5655    0.3633    0.0172 Br  0  0  0  0  0  0  0  0  0  0  0  0
   -4.0884    1.1803   -0.6501 Cl  0  0  0  0  0  0  0  0  0  0  0  0
   -3.1715   -1.0250    0.0173 H   0  0  0  0  0  0  0  0  0  0  0  0
   -2.4859   -1.8348    1.2956 H   0  0  0  0  0  0  0  0  0  0  0  0
   -3.3224   -2.6826    0.1377 H   0  0  0  0  0  0  0  0  0  0  0  0
   -1.6734   -2.2383   -1.5481 H   0  0  0  0  0  0  0  0  0  0  0  0
   -0.8731   -2.9249   -0.1564 H   0  0  0  0  0  0  0  0  0  0  0  0
   -1.0740    0.0737   -0.7505 H   0  0  0  0  0  0  0  0  0  0  0  0
    0.3236   -0.9057   -1.0960 H   0  0  0  0  0  0  0  0  0  0  0  0
    0.5288   -1.4497    1.3632 H   0  0  0  0  0  0  0  0  0  0  0  0
   -0.8255   -0.3970    1.6955 H   0  0  0  0  0  0  0  0  0  0  0  0
    1.2857    0.8415    2.0816 H   0  0  0  0  0  0  0  0  0  0  0  0
    0.4844    1.5351    0.6792 H   0  0  0  0  0  0  0  0  0  0  0  0
  1  2  1  0  0  0  0
  2  3  1  0  0  0  0
  3  4  1  0  0  0  0
  4  5  1  0  0  0  0
  5  6  1  0  0  0  0
  1  8  1  0  0  0  0
  1  9  1  0  0  0  0
  1 10  1  0  0  0  0
  2 11  1  0  0  0  0
  2 12  1  0  0  0  0
  3 13  1  0  0  0  0
  3 14  1  0  0  0  0
  4 15  1  0  0  0  0
  4 16  1  0  0  0  0
  5 17  1  0  0  0  0
  5 18  1  0  0  0  0
M  END
