24
 xtb: 6.5.1 (fef0646)
N            1.03818923909006       -0.81421765062248        1.33663411402502
C           -0.28202956987711       -1.15880996822070        0.73050172780697
C           -0.47326042132340       -0.51210513198877       -0.64000329323295
C           -0.44811111356186        1.01827628000862       -0.61502799823603
C           -1.54775300680162        1.65273167598798        0.24090703196704
C           -2.96276776765338        1.34889600100526       -0.25387532228535
C           -4.03445106648621        2.04282519486223        0.57235072503780
Cl           3.41881723103557       -1.39368552950343       -0.63204518543335
H            0.98342135497322        0.22238771710878        1.62275285973423
H            1.76346668687645       -0.99805580813047        0.79238258610223
H            1.08703090279056       -1.29474473779898        2.29905390600210
H           -1.17243266295012       -0.87885701099527        1.38333516175705
H           -0.38363647488754       -2.24973828612795        0.65185444529677
H           -1.40335120266339       -0.85616787483365       -1.10903805485677
H            0.32850464536107       -0.88399023360875       -1.28358642343069
H           -0.52325385360462        1.40212234482582       -1.63636360906599
H            0.53626737376612        1.35346542847621       -0.25586146522098
H           -1.41061520633350        2.74473395240578        0.27170711162278
H           -1.44708021990450        1.33270635485891        1.28419805437306
H           -3.12833988200908        0.26250134338322       -0.24181830300061
H           -3.04905838991784        1.63807369220573       -1.30809216118752
H           -5.04177128034165        1.81409559968946        0.21380088841932
H           -3.91440518117262        3.12738999316998        0.54439398101254
H           -3.98347043388171        1.74009757743527        1.62091283916213
