 xtb: 6.5.1 (fef0646)
          01242316573D

 12 10  0     0  0            999 V2000
    0.9951    0.5749    0.2934 N   0  0  0  0  0  0  0  0  0  0  0  0
    1.6797   -0.6816   -0.1336 C   0  0  0  0  0  0  0  0  0  0  0  0
    3.1854   -0.5943    0.0204 C   0  0  0  0  0  0  0  0  0  0  0  0
   -2.4943    0.2465   -0.0964 Cl  0  0  0  0  0  0  0  0  0  0  0  0
    1.3167    1.3767   -0.2656 H   0  0  0  0  0  0  0  0  0  0  0  0
    1.1968    0.7861    1.2801 H   0  0  0  0  0  0  0  0  0  0  0  0
   -0.0333    0.5092    0.1885 H   0  0  0  0  0  0  0  0  0  0  0  0
    1.4172   -0.9036   -1.1762 H   0  0  0  0  0  0  0  0  0  0  0  0
    1.2874   -1.5261    0.4476 H   0  0  0  0  0  0  0  0  0  0  0  0
    3.6854   -1.5141   -0.2912 H   0  0  0  0  0  0  0  0  0  0  0  0
    3.4647   -0.4036    1.0577 H   0  0  0  0  0  0  0  0  0  0  0  0
    3.5958    0.2215   -0.5772 H   0  0  0  0  0  0  0  0  0  0  0  0
  1  2  1  0  0  0  0
  2  3  1  0  0  0  0
  1  5  1  0  0  0  0
  1  6  1  0  0  0  0
  1  7  1  0  0  0  0
  2  8  1  0  0  0  0
  2  9  1  0  0  0  0
  3 10  1  0  0  0  0
  3 11  1  0  0  0  0
  3 12  1  0  0  0  0
M  END
