24
 xtb: 6.5.1 (fef0646)
N            3.02644054778957        0.30278666296014       -0.27741154436132
C            1.94969535770898       -0.53879975742601        0.33000518613083
C            0.53964236898161       -0.23340524476075       -0.19824668034491
C            0.00705900729807        1.11574656466386        0.34239482167519
C           -1.41297464521698        1.42135969704070       -0.16614484030300
C           -2.38499229313515        0.28356271010928        0.19088086906832
C           -1.87611989872221       -1.06490776177100       -0.34765982730158
C           -0.45493504609205       -1.36651143274226        0.15990257380350
H            3.92811141886626        0.13757936366150        0.17563850030645
H            2.78551001235312        1.32706757410432       -0.10449733590185
H            3.09964933656186        0.17704008307331       -1.28297106034866
H            1.96772297303132       -0.47688415461708        1.40875842524735
H            2.20402336876190       -1.59729737983094        0.08999685063538
H            0.57732402416088       -0.18058006685436       -1.28811266945148
H            0.70296601586848        1.92317463973011        0.06874640913214
H            0.00626929462665        1.08755301143539        1.43110837655730
H           -1.37342555211280        1.54148923051975       -1.27022501823378
H           -1.75934339699798        2.37977055833272        0.21213449896836
H           -3.38441789660295        0.50443841722089       -0.21451777178067
H           -2.49845118844335        0.24138546122617        1.26753176726892
H           -1.86575085131939       -1.05726684798314       -1.43590117756790
H           -2.56809087141443       -1.87292340754008       -0.06061736466939
H           -0.10083018673392       -2.33242632448643       -0.19821624487834
H           -0.48345653109299       -1.47143483942218        1.27009155875861
