13
2.435
N            2.34275  -0.00797   0.06867
C            0.95084   0.38702  -0.30305
C           -0.12250  -0.45818   0.38375
C           -1.46305  -0.10419   0.04976
C           -2.61011   0.18722  -0.22620
H            3.04416   0.57852  -0.40811
H            2.53417  -0.98752  -0.18720
H            2.49969   0.08611   1.08287
H            0.83319   0.31597  -1.39257
H            0.79742   1.44638  -0.05732
H           -0.00343  -0.38889   1.47234
H            0.03118  -1.51657   0.13870
H           -3.62523   0.43532  -0.46207
