 xtb: 6.5.1 (fef0646)
          01242310113D

 37 39  0     0  0            999 V2000
   -3.1273    1.4126    1.0261 N   0  0  0  0  0  0  0  0  0  0  0  0
   -3.9249    0.4429    0.2406 C   0  0  0  0  0  0  0  0  0  0  0  0
   -3.7662    0.7520   -1.2416 C   0  0  0  0  0  0  0  0  0  0  0  0
   -2.4120    1.0625   -1.5568 O   0  0  0  0  0  0  0  0  0  0  0  0
   -1.4940    0.0452   -1.3346 C   0  0  0  0  0  0  0  0  0  0  0  0
   -0.1497    0.4253   -1.0791 C   0  0  0  0  0  0  0  0  0  0  0  0
    0.2354    1.7900   -1.0669 C   0  0  0  0  0  0  0  0  0  0  0  0
    1.5152    2.1611   -0.8028 C   0  0  0  0  0  0  0  0  0  0  0  0
    0.8216   -0.5649   -0.8076 C   0  0  0  0  0  0  0  0  0  0  0  0
    0.4658   -1.9343   -0.8064 C   0  0  0  0  0  0  0  0  0  0  0  0
   -0.8641   -2.2818   -1.0799 C   0  0  0  0  0  0  0  0  0  0  0  0
   -1.8107   -1.3227   -1.3357 C   0  0  0  0  0  0  0  0  0  0  0  0
    1.4671   -2.9061   -0.5312 C   0  0  0  0  0  0  0  0  0  0  0  0
    2.7486   -2.5421   -0.2689 C   0  0  0  0  0  0  0  0  0  0  0  0
    3.1395   -1.1716   -0.2586 C   0  0  0  0  0  0  0  0  0  0  0  0
    4.4502   -0.7686    0.0092 C   0  0  0  0  0  0  0  0  0  0  0  0
    4.7915    0.5695    0.0107 C   0  0  0  0  0  0  0  0  0  0  0  0
    3.8451    1.5398   -0.2519 C   0  0  0  0  0  0  0  0  0  0  0  0
    2.5198    1.1900   -0.5260 C   0  0  0  0  0  0  0  0  0  0  0  0
    2.1641   -0.1808   -0.5301 C   0  0  0  0  0  0  0  0  0  0  0  0
   -2.9035    0.5194    4.3596 Cl  0  0  0  0  0  0  0  0  0  0  0  0
   -3.5117    2.3665    0.9393 H   0  0  0  0  0  0  0  0  0  0  0  0
   -2.1684    1.4391    0.6402 H   0  0  0  0  0  0  0  0  0  0  0  0
   -3.0715    1.1690    2.0354 H   0  0  0  0  0  0  0  0  0  0  0  0
   -4.9782    0.4603    0.5456 H   0  0  0  0  0  0  0  0  0  0  0  0
   -3.5651   -0.5703    0.4536 H   0  0  0  0  0  0  0  0  0  0  0  0
   -4.3462    1.6432   -1.5067 H   0  0  0  0  0  0  0  0  0  0  0  0
   -4.1200   -0.0543   -1.8929 H   0  0  0  0  0  0  0  0  0  0  0  0
   -0.5147    2.5318   -1.2868 H   0  0  0  0  0  0  0  0  0  0  0  0
    1.7893    3.2030   -0.8030 H   0  0  0  0  0  0  0  0  0  0  0  0
   -1.1364   -3.3244   -1.0878 H   0  0  0  0  0  0  0  0  0  0  0  0
   -2.8176   -1.6268   -1.5591 H   0  0  0  0  0  0  0  0  0  0  0  0
    1.1897   -3.9472   -0.5345 H   0  0  0  0  0  0  0  0  0  0  0  0
    3.4939   -3.2923   -0.0628 H   0  0  0  0  0  0  0  0  0  0  0  0
    5.1963   -1.5182    0.2155 H   0  0  0  0  0  0  0  0  0  0  0  0
    5.8092    0.8598    0.2192 H   0  0  0  0  0  0  0  0  0  0  0  0
    4.1215    2.5812   -0.2489 H   0  0  0  0  0  0  0  0  0  0  0  0
  1  2  1  0  0  0  0
  2  3  1  0  0  0  0
  3  4  1  0  0  0  0
  4  5  1  0  0  0  0
  5  6  4  0  0  0  0
  6  7  4  0  0  0  0
  7  8  2  0  0  0  0
  6  9  4  0  0  0  0
  9 10  4  0  0  0  0
 10 11  4  0  0  0  0
  5 12  4  0  0  0  0
 11 12  4  0  0  0  0
 10 13  4  0  0  0  0
 13 14  2  0  0  0  0
 14 15  4  0  0  0  0
 15 16  4  0  0  0  0
 16 17  4  0  0  0  0
 17 18  4  0  0  0  0
  8 19  4  0  0  0  0
 18 19  4  0  0  0  0
  9 20  4  0  0  0  0
 15 20  4  0  0  0  0
 19 20  4  0  0  0  0
  1 22  1  0  0  0  0
  1 23  1  0  0  0  0
  1 24  1  0  0  0  0
  2 25  1  0  0  0  0
  2 26  1  0  0  0  0
  3 27  1  0  0  0  0
  3 28  1  0  0  0  0
  7 29  1  0  0  0  0
  8 30  1  0  0  0  0
 11 31  1  0  0  0  0
 12 32  1  0  0  0  0
 13 33  1  0  0  0  0
 14 34  1  0  0  0  0
 16 35  1  0  0  0  0
 17 36  1  0  0  0  0
 18 37  1  0  0  0  0
M  END
