 xtb: 6.5.1 (fef0646)
          01242314553D

 16 15  0     0  0            999 V2000
    2.2147   -0.0353   -0.2090 N   0  0  0  0  0  0  0  0  0  0  0  0
    0.7639   -0.0268   -0.1916 C   0  0  0  0  0  0  0  0  0  0  0  0
    0.0613   -1.2194   -0.1807 C   0  0  0  0  0  0  0  0  0  0  0  0
   -1.3242   -1.1981   -0.1651 C   0  0  0  0  0  0  0  0  0  0  0  0
   -2.0004    0.0098   -0.1610 C   0  0  0  0  0  0  0  0  0  0  0  0
   -1.2916    1.2008   -0.1673 C   0  0  0  0  0  0  0  0  0  0  0  0
    0.0921    1.1855   -0.1830 C   0  0  0  0  0  0  0  0  0  0  0  0
    3.3850    1.2045    2.2661 Cl  0  0  0  0  0  0  0  0  0  0  0  0
    2.5830   -0.9868   -0.2941 H   0  0  0  0  0  0  0  0  0  0  0  0
    2.6066    0.3784    0.6921 H   0  0  0  0  0  0  0  0  0  0  0  0
    2.5873    0.5545   -0.9597 H   0  0  0  0  0  0  0  0  0  0  0  0
    0.5837   -2.1628   -0.1792 H   0  0  0  0  0  0  0  0  0  0  0  0
   -1.8747   -2.1255   -0.1555 H   0  0  0  0  0  0  0  0  0  0  0  0
   -3.0790    0.0250   -0.1491 H   0  0  0  0  0  0  0  0  0  0  0  0
   -1.8174    2.1427   -0.1577 H   0  0  0  0  0  0  0  0  0  0  0  0
    0.6511    2.1074   -0.1697 H   0  0  0  0  0  0  0  0  0  0  0  0
  1  2  1  0  0  0  0
  2  3  4  0  0  0  0
  3  4  4  0  0  0  0
  4  5  4  0  0  0  0
  5  6  4  0  0  0  0
  2  7  4  0  0  0  0
  6  7  4  0  0  0  0
  1  9  1  0  0  0  0
  1 10  1  0  0  0  0
  1 11  1  0  0  0  0
  3 12  1  0  0  0  0
  4 13  1  0  0  0  0
  5 14  1  0  0  0  0
  6 15  1  0  0  0  0
  7 16  1  0  0  0  0
M  END
