28
0.91
N           -2.55827  -1.32662  -0.67412
C           -1.38621  -2.19865  -0.97827
C           -0.24232  -1.44303  -1.64855
C            0.39033  -0.33924  -0.78217
C            1.41007   0.49549  -1.59459
C            2.02369   1.62169  -0.74569
C            2.69352   1.05466   0.51773
C            1.69663   0.22098   1.34080
C            1.07062  -0.89892   0.49040
Cl          -1.79066   1.21751   1.64931
H           -2.31245  -0.59064   0.00526
H           -3.34601  -1.86284  -0.27650
H           -2.89531  -0.85702  -1.52535
H           -1.71327  -3.02541  -1.62172
H           -1.03464  -2.67747  -0.05765
H           -0.60697  -0.99864  -2.58168
H            0.54694  -2.14124  -1.95029
H           -0.40710   0.34650  -0.45786
H            0.93772   0.89595  -2.50091
H            2.20407  -0.17068  -1.95063
H            1.23513   2.32615  -0.45341
H            2.73805   2.21145  -1.33658
H            3.12491   1.86120   1.12663
H            3.54193   0.42304   0.22676
H            0.90263   0.87618   1.71938
H            2.18133  -0.19461   2.23499
H            0.35558  -1.48008   1.08484
H            1.84681  -1.61135   0.18945
