28
0.324
N           -1.78404  -1.71611   0.64758
C           -1.16134  -1.92469  -0.69236
C           -0.43551  -0.68368  -1.20391
C            0.70020  -0.18693  -0.29238
C            1.28184   1.15453  -0.80134
C            2.39371   1.67688   0.12431
C            3.51548   0.63539   0.27946
C            2.95520  -0.70577   0.78385
C            1.83822  -1.22389  -0.13951
Cl          -3.50953   1.31544   0.45230
H           -2.38074  -2.50765   0.92717
H           -2.36813  -0.86222   0.64177
H           -1.06958  -1.59144   1.37795
H           -1.93814  -2.22105  -1.40880
H           -0.47360  -2.77679  -0.64978
H           -1.16238   0.12608  -1.33667
H           -0.02499  -0.87012  -2.20294
H            0.28376  -0.00225   0.70987
H            0.48134   1.89678  -0.91620
H            1.68400   1.00253  -1.80938
H            1.96875   1.90275   1.11013
H            2.79404   2.63057  -0.24648
H            4.30314   1.00659   0.94964
H            4.00569   0.48253  -0.68996
H            2.55569  -0.57374   1.79696
H            3.75651  -1.45114   0.88161
H            1.44304  -2.17824   0.22855
H            2.25042  -1.44187  -1.13110
