28
2.014
N           -2.03164  -1.11354   1.24963
C           -1.42631  -2.11823   0.32833
C           -0.41473  -1.52446  -0.65026
C            0.81326  -0.86061   0.01667
C            0.58508   0.63724   0.33500
C            1.80538   1.25501   1.03854
C            3.07469   1.08997   0.18458
C            3.31625  -0.38936  -0.16332
C            2.08639  -1.00487  -0.85365
Cl          -2.89508   1.66606  -0.68928
H           -1.34017  -0.76625   1.92833
H           -2.82222  -1.50452   1.78733
H           -2.38116  -0.30171   0.71740
H           -2.22722  -2.61995  -0.22969
H           -0.94810  -2.90913   0.91856
H           -0.90710  -0.79061  -1.29779
H           -0.06640  -2.31267  -1.32937
H            1.00915  -1.38158   0.96721
H           -0.32581   0.78279   0.92612
H            0.40192   1.16781  -0.60642
H            1.95310   0.76207   2.00735
H            1.62628   2.31326   1.27373
H            3.94763   1.51804   0.69652
H            2.96742   1.66824  -0.74144
H            3.53352  -0.94759   0.75569
H            4.21121  -0.50141  -0.79075
H            2.26076  -2.05966  -1.10105
H            1.91343  -0.50504  -1.81338
