28
1.504
N           -1.50858  -1.58267  -0.51000
C           -0.96065  -0.53375  -1.42022
C           -0.55348   0.74472  -0.67849
C            0.91550   0.79779  -0.21078
C            1.91767   0.87552  -1.38699
C            3.35757   1.06045  -0.87558
C            3.75025  -0.06989   0.09363
C            2.74612  -0.18223   1.25545
C            1.31194  -0.36360   0.72743
Cl          -4.18838  -0.14260   1.22706
H           -1.81384  -2.42135  -1.02410
H           -2.32503  -1.21798   0.01090
H           -0.81482  -1.88106   0.18839
H           -1.72270  -0.30231  -2.17612
H           -0.11316  -0.93362  -1.98734
H           -1.21512   0.87241   0.18594
H           -0.74199   1.61841  -1.31489
H            1.04883   1.72648   0.37019
H            1.63281   1.67863  -2.07872
H            1.85903  -0.04850  -1.97179
H            3.43934   2.02560  -0.36067
H            4.06412   1.11763  -1.71508
H            4.76995   0.08076   0.47414
H            3.78125  -1.02096  -0.45216
H            2.79581   0.72620   1.86827
H            3.01954  -1.00469   1.93068
H            0.59082  -0.45653   1.54894
H            1.25562  -1.30339   0.16808
