28
0.052
N           -2.54328  -0.76520  -1.50861
C           -1.23271  -0.05120  -1.48573
C           -0.34346  -0.52310  -0.34204
C            0.97794   0.25630  -0.21014
C            1.91577   0.04464  -1.42302
C            3.22505   0.83920  -1.27222
C            3.94878   0.47396   0.03545
C            3.02825   0.68317   1.25015
C            1.72211  -0.11471   1.09544
Cl          -3.99009  -0.26114   1.64743
H           -2.40789  -1.77675  -1.63710
H           -3.15912  -0.42730  -2.26500
H           -3.03876  -0.63377  -0.61349
H           -1.40221   1.02855  -1.39826
H           -0.72234  -0.18932  -2.44545
H           -0.12153  -1.58899  -0.46010
H           -0.90186  -0.45026   0.59801
H            0.73666   1.33009  -0.16118
H            1.40540   0.31260  -2.35628
H            2.14092  -1.02423  -1.51053
H            2.99961   1.91284  -1.27429
H            3.88066   0.67758  -2.13906
H            4.87626   1.05310   0.14370
H            4.26375  -0.57610  -0.00495
H            2.79223   1.75003   1.34752
H            3.54300   0.41187   2.18213
H            1.06490   0.03147   1.96203
H            1.94617  -1.18727   1.07843
