28
1.445
N           -1.65144  -0.76490  -1.33149
C           -0.88981  -1.56751  -0.32900
C           -0.38486  -0.72888   0.85042
C            1.01870  -0.11365   0.67457
C            1.14223   0.82039  -0.54946
C            2.52152   1.50190  -0.58507
C            3.65124   0.45557  -0.59974
C            3.52973  -0.51374   0.59064
C            2.14107  -1.17724   0.62502
Cl          -4.21444   0.88831   0.38650
H           -1.06653  -0.03533  -1.75971
H           -2.44927  -0.28547  -0.87925
H           -2.02663  -1.34931  -2.09238
H           -0.05593  -2.08415  -0.81606
H           -1.54458  -2.36948   0.03698
H           -0.37805  -1.34017   1.76189
H           -1.10943   0.06930   1.04690
H            1.22380   0.50956   1.56193
H            0.32903   1.55725  -0.55481
H            1.01782   0.22534  -1.46030
H            2.63250   2.14443   0.29706
H            2.60105   2.17622  -1.44887
H            4.63476   0.94539  -0.60367
H            3.60626  -0.11335  -1.53659
H            3.69295   0.03642   1.52549
H            4.32288  -1.27332   0.55767
H            2.04902  -1.86932   1.47145
H            2.01427  -1.79292  -0.27164
