 xtb: 6.5.1 (fef0646)
          01242317063D

 21 21  0     0  0            999 V2000
   -4.6338   -0.2457   -0.6507 N   0  0  0  0  0  0  0  0  0  0  0  0
   -3.1443   -0.2756   -0.7692 C   0  0  0  0  0  0  0  0  0  0  0  0
   -2.4351    0.1360    0.5177 C   0  0  0  0  0  0  0  0  0  0  0  0
   -0.9404    0.1125    0.3916 C   0  0  0  0  0  0  0  0  0  0  0  0
   -0.2505    1.2354   -0.0753 C   0  0  0  0  0  0  0  0  0  0  0  0
    1.1109    1.2126   -0.2263 C   0  0  0  0  0  0  0  0  0  0  0  0
    1.8276    0.0455    0.0861 C   0  0  0  0  0  0  0  0  0  0  0  0
    3.5096    0.0050   -0.0974 Cl  0  0  0  0  0  0  0  0  0  0  0  0
    1.1409   -1.0891    0.5484 C   0  0  0  0  0  0  0  0  0  0  0  0
   -0.2210   -1.0478    0.6930 C   0  0  0  0  0  0  0  0  0  0  0  0
   -4.9577    0.6963   -0.4113 H   0  0  0  0  0  0  0  0  0  0  0  0
   -4.9512   -0.8855    0.0840 H   0  0  0  0  0  0  0  0  0  0  0  0
   -5.0826   -0.5227   -1.5296 H   0  0  0  0  0  0  0  0  0  0  0  0
   -2.8315    0.3828   -1.5877 H   0  0  0  0  0  0  0  0  0  0  0  0
   -2.8220   -1.2819   -1.0609 H   0  0  0  0  0  0  0  0  0  0  0  0
   -2.7413   -0.5213    1.3375 H   0  0  0  0  0  0  0  0  0  0  0  0
   -2.7581    1.1382    0.8163 H   0  0  0  0  0  0  0  0  0  0  0  0
   -0.8020    2.1282   -0.3171 H   0  0  0  0  0  0  0  0  0  0  0  0
    1.6461    2.0767   -0.5838 H   0  0  0  0  0  0  0  0  0  0  0  0
    1.6988   -1.9807    0.7822 H   0  0  0  0  0  0  0  0  0  0  0  0
   -0.7497   -1.9179    1.0439 H   0  0  0  0  0  0  0  0  0  0  0  0
  1  2  1  0  0  0  0
  2  3  1  0  0  0  0
  3  4  1  0  0  0  0
  4  5  4  0  0  0  0
  5  6  4  0  0  0  0
  6  7  4  0  0  0  0
  7  8  1  0  0  0  0
  7  9  4  0  0  0  0
  4 10  4  0  0  0  0
  9 10  4  0  0  0  0
  1 11  1  0  0  0  0
  1 12  1  0  0  0  0
  1 13  1  0  0  0  0
  2 14  1  0  0  0  0
  2 15  1  0  0  0  0
  3 16  1  0  0  0  0
  3 17  1  0  0  0  0
  5 18  1  0  0  0  0
  6 19  1  0  0  0  0
  9 20  1  0  0  0  0
 10 21  1  0  0  0  0
M  CHG  1   1   1
M  END
