13

N          0.94717       -0.24225       -0.07114
C          2.41421       -0.13868       -0.02302
C          2.89348        0.38293        1.32457
C          4.41138        0.45726        1.29520
N          5.67060        0.51893        1.27084
Cl        -0.39367        2.20858        0.59002
H          0.55483       -0.42561       -0.99834
H          0.51218        0.70277        0.16200
H          0.50360       -0.85918        0.61770
H          2.70962        0.52793       -0.84160
H          2.80418       -1.13873       -0.23179
H          2.57828       -0.28145        2.13636
H          2.50535        1.38401        1.53161
