 xtb: 6.5.1 (fef0646)
          01232318523D

 18 18  0     0  0            999 V2000
    1.3768    0.6871   -0.7075 N   0  0  0  0  0  0  0  0  0  0  0  0
    2.5512    0.0322   -0.0207 C   0  0  0  0  0  0  0  0  0  0  0  0
    3.0200   -1.1294   -0.8496 C   0  0  0  0  0  0  0  0  0  0  0  0
    3.9661   -0.9352   -1.8505 C   0  0  0  0  0  0  0  0  0  0  0  0
    4.3783   -2.0003   -2.6314 C   0  0  0  0  0  0  0  0  0  0  0  0
    3.8447   -3.2616   -2.4206 C   0  0  0  0  0  0  0  0  0  0  0  0
    2.8995   -3.4595   -1.4269 C   0  0  0  0  0  0  0  0  0  0  0  0
    2.4849   -2.3964   -0.6443 C   0  0  0  0  0  0  0  0  0  0  0  0
    1.0281    1.4970   -0.1794 H   0  0  0  0  0  0  0  0  0  0  0  0
    0.6184   -0.0000   -0.8127 H   0  0  0  0  0  0  0  0  0  0  0  0
    1.6623    0.9928   -1.6473 H   0  0  0  0  0  0  0  0  0  0  0  0
    2.2261   -0.2953    0.9674 H   0  0  0  0  0  0  0  0  0  0  0  0
    3.3378    0.7795    0.0892 H   0  0  0  0  0  0  0  0  0  0  0  0
    4.3969    0.0435   -2.0064 H   0  0  0  0  0  0  0  0  0  0  0  0
    5.1190   -1.8468   -3.3999 H   0  0  0  0  0  0  0  0  0  0  0  0
    4.1700   -4.0918   -3.0270 H   0  0  0  0  0  0  0  0  0  0  0  0
    2.4888   -4.4421   -1.2578 H   0  0  0  0  0  0  0  0  0  0  0  0
    1.7598   -2.5576    0.1404 H   0  0  0  0  0  0  0  0  0  0  0  0
  1  2  1  0  0  0  0
  2  3  1  0  0  0  0
  3  4  4  0  0  0  0
  4  5  4  0  0  0  0
  5  6  4  0  0  0  0
  6  7  4  0  0  0  0
  3  8  4  0  0  0  0
  7  8  4  0  0  0  0
  1  9  1  0  0  0  0
  1 10  1  0  0  0  0
  1 11  1  0  0  0  0
  2 12  1  0  0  0  0
  2 13  1  0  0  0  0
  4 14  1  0  0  0  0
  5 15  1  0  0  0  0
  6 16  1  0  0  0  0
  7 17  1  0  0  0  0
  8 18  1  0  0  0  0
M  CHG  1   1   1
M  END
