28
0.644
N           -2.87031   1.64964   0.46313
C           -2.07107   2.01860  -0.73992
C           -0.66207   1.40775  -0.76074
C           -0.68147  -0.13544  -0.81574
C            0.74195  -0.70299  -0.93674
C            1.63986  -0.22492   0.22385
C            3.04779  -0.75969   0.06427
O            3.79919  -0.18716  -0.90493
O            3.43613  -1.66213   0.77580
C            1.63680   1.31451   0.31994
C            0.20753   1.87083   0.42915
Cl          -3.31747  -1.85597   0.72585
H           -2.41462   1.96809   1.32843
H           -2.99138   0.62540   0.53432
H           -3.81005   2.06839   0.43670
H           -1.99557   3.11006  -0.79830
H           -2.61447   1.70903  -1.63971
H           -0.15434   1.75079  -1.67726
H           -1.32124  -0.48175  -1.63617
H           -1.14221  -0.51681   0.10063
H            1.19350  -0.38033  -1.88084
H            0.73135  -1.79899  -0.97682
H            1.23885  -0.63195   1.16306
H            4.66941  -0.61270  -0.91602
H            2.12766   1.71814  -0.57191
H            2.25531   1.64028   1.16488
H            0.20974   2.96507   0.49783
H           -0.24544   1.51632   1.36010
