28
0.382
N           -3.02275   1.83700  -0.08004
C           -2.11843   1.53473   1.06654
C           -0.88577   0.71791   0.65787
C           -0.08451   0.24097   1.89192
C            1.13077  -0.60598   1.48309
C            2.05364   0.16146   0.51397
C            3.22825  -0.69352   0.08648
O            2.92603  -1.90752  -0.42963
O            4.35936  -0.27159   0.20517
C            1.26173   0.65213  -0.71322
C            0.04390   1.49538  -0.30162
Cl          -3.53401  -1.24891  -1.66690
H           -3.26693   0.96791  -0.57827
H           -2.57248   2.46700  -0.76047
H           -3.89749   2.28322   0.22700
H           -2.67751   0.98651   1.83295
H           -1.79620   2.46554   1.54453
H           -1.23645  -0.17786   0.12263
H           -0.73677  -0.31289   2.57774
H            0.25187   1.11886   2.45342
H            0.79672  -1.52463   0.98914
H            1.69866  -0.93697   2.36093
H            2.45845   1.03759   1.04033
H            3.75028  -2.35585  -0.67098
H            0.93333  -0.22174  -1.28589
H            1.92256   1.21102  -1.38695
H           -0.51056   1.82988  -1.18553
H            0.38041   2.40999   0.19746
