28
0.85
N           -2.58512   1.10836  -0.37712
C           -1.88810  -0.13859   0.05060
C           -0.38986  -0.13955  -0.27976
C            0.24256  -1.53135  -0.04263
C            1.73652  -1.54218  -0.40224
C            2.51489  -0.46453   0.38081
C            3.97824  -0.45329  -0.00884
O            4.24537  -0.47202  -1.33530
O            4.83287  -0.41033   0.85089
C            1.88448   0.92407   0.16174
C            0.38918   0.93061   0.51898
Cl          -6.03673   0.79350   0.28524
H           -2.22774   1.93183   0.12481
H           -3.60278   1.05368  -0.19598
H           -2.45577   1.27539  -1.38373
H           -2.36623  -1.00035  -0.42820
H           -2.02048  -0.28878   1.12709
H           -0.27835   0.09920  -1.34838
H           -0.30270  -2.29758  -0.60668
H            0.11670  -1.79960   1.01157
H            1.86397  -1.35141  -1.47314
H            2.18140  -2.52925  -0.22767
H            2.46152  -0.70656   1.45185
H            5.20622  -0.45575  -1.45745
H            2.01764   1.20357  -0.88877
H            2.43347   1.67960   0.73690
H           -0.04309   1.92374   0.35365
H            0.26539   0.73135   1.58848
