28
0.317
N           -3.24891   1.09484   0.88396
C           -2.02946   1.89305   0.56754
C           -0.80746   1.02040   0.25324
C           -0.35210   0.18374   1.46994
C            0.85759  -0.69969   1.12475
C            2.03512   0.13536   0.58125
C            3.19949  -0.75851   0.20915
O            2.97965  -1.62915  -0.80322
O            4.24895  -0.67158   0.81136
C            1.58634   0.98512  -0.62348
C            0.37657   1.86571  -0.27295
Cl          -3.49512  -1.28602  -1.68127
H           -3.14213   0.57697   1.76596
H           -3.42456   0.40163   0.13752
H           -4.08540   1.68761   0.96990
H           -1.79396   2.56298   1.40064
H           -2.23668   2.54605  -0.28777
H           -1.09193   0.31539  -0.54297
H           -1.18042  -0.42597   1.84790
H           -0.09065   0.86362   2.28749
H            0.57631  -1.43646   0.36471
H            1.18230  -1.28580   1.99301
H            2.37908   0.81180   1.37661
H            3.78579  -2.14641  -0.94800
H            1.33040   0.31036  -1.44726
H            2.42471   1.58913  -0.99101
H            0.06229   2.46392  -1.13652
H            0.66071   2.59048   0.49709
