 xtb: 6.5.1 (fef0646)
          01242314563D

 12 11  0     0  0            999 V2000
    1.0041    0.0966   -0.0178 N   0  0  0  0  0  0  0  0  0  0  0  0
    2.4826   -0.0081   -0.0530 C   0  0  0  0  0  0  0  0  0  0  0  0
    2.9694   -0.5198   -1.4113 C   0  0  0  0  0  0  0  0  0  0  0  0
    2.5865   -1.8885   -1.6480 C   0  0  0  0  0  0  0  0  0  0  0  0
    2.2598   -2.9721   -1.8197 N   0  0  0  0  0  0  0  0  0  0  0  0
    0.6915    0.4437    0.8978 H   0  0  0  0  0  0  0  0  0  0  0  0
    0.5707   -0.8209   -0.1807 H   0  0  0  0  0  0  0  0  0  0  0  0
    0.6675    0.7435   -0.7424 H   0  0  0  0  0  0  0  0  0  0  0  0
    2.8141   -0.6846    0.7356 H   0  0  0  0  0  0  0  0  0  0  0  0
    2.9142    0.9772    0.1238 H   0  0  0  0  0  0  0  0  0  0  0  0
    4.0599   -0.4734   -1.4481 H   0  0  0  0  0  0  0  0  0  0  0  0
    2.5829    0.0915   -2.2303 H   0  0  0  0  0  0  0  0  0  0  0  0
  1  2  1  0  0  0  0
  2  3  1  0  0  0  0
  3  4  1  0  0  0  0
  4  5  3  0  0  0  0
  1  6  1  0  0  0  0
  1  7  1  0  0  0  0
  1  8  1  0  0  0  0
  2  9  1  0  0  0  0
  2 10  1  0  0  0  0
  3 11  1  0  0  0  0
  3 12  1  0  0  0  0
M  CHG  1   1   1
M  END
