30
1.131
N           -2.47056   0.23017  -0.59961
C           -1.95763   0.76827   0.69424
C           -0.74909   1.68311   0.51752
C            0.49190   0.95339   0.00271
C            1.71109   1.86899  -0.12324
C            2.94465   1.17099  -0.70262
C            3.51137   0.07649   0.20252
C            4.77563  -0.57198  -0.36377
C            5.33304  -1.66206   0.53965
Cl          -5.31972  -1.76120  -0.03235
H           -2.71905   0.99396  -1.24320
H           -3.31245  -0.35337  -0.46446
H           -1.76260  -0.35391  -1.07076
H           -1.69649  -0.06296   1.36001
H           -2.76612   1.30689   1.20439
H           -0.50678   2.17528   1.46800
H           -1.00485   2.49757  -0.16974
H            0.27966   0.49650  -0.97044
H            0.72104   0.11383   0.66894
H            1.95514   2.28914   0.85970
H            1.44370   2.73342  -0.74477
H            3.73189   1.90876  -0.90453
H            2.69751   0.74292  -1.68136
H            2.75390  -0.69677   0.37528
H            3.72413   0.49304   1.19456
H            5.53512   0.20200  -0.53517
H            4.55857  -0.98040  -1.35943
H            5.58831  -1.26663   1.52465
H            6.23496  -2.11814   0.12543
H            4.60336  -2.45937   0.69318
