30
 xtb: 6.5.1 (fef0646)
N           -2.55049594478977        0.16370528806942       -0.55912195372527
C           -1.98783885780888        0.73480647987546        0.70290790209161
C           -0.78438653430555        1.65459023684537        0.49583686632235
C            0.46629575018415        0.93149168302040       -0.00727298798286
C            1.68293313190543        1.85347052694257       -0.12478922288285
C            2.92523024261119        1.16606012321094       -0.70018151359467
C            3.49977032080487        0.07532809756959        0.20495188365669
C            4.76626432875972       -0.56816143330682       -0.36280254912253
C            5.32829035682323       -1.65788618134884        0.53845751799336
Cl          -5.14503463247682       -1.64424489227211       -0.05084973532616
H           -2.74518368425661        0.97190905818369       -1.23517630020804
H           -3.33818459923298       -0.37162965247384       -0.44258164591386
H           -1.79008566604759       -0.37619193203065       -1.06275599336389
H           -1.70029670022296       -0.06931633435062        1.36480158661816
H           -2.77149526123171        1.29917236649788        1.21033873245767
H           -0.51761666079263        2.17307274434573        1.45890268087357
H           -1.01814242340548        2.48468901700267       -0.18031732781364
H            0.27432422395168        0.48896948612169       -0.97315353847475
H            0.71344458148013        0.10831089883739        0.66723708580758
H            1.94481186845920        2.28428201020455        0.85997276842956
H            1.43524202263368        2.72904300921851       -0.74495024557290
H            3.72454509269665        1.90939077370888       -0.90306507511107
H            2.69373431927716        0.74104329521869       -1.68094427095399
H            2.75153560275309       -0.69795739160644        0.37656989223222
H            3.72069485225404        0.49324342660870        1.19506203284282
H            5.53162628415219        0.20386616050416       -0.53480967934257
H            4.55604160255448       -0.97919333834979       -1.35927162298618
H            5.58668944744767       -1.26567186827123        1.52446189181321
H            6.23400254074855       -2.11581000863784        0.12470598149158
H            4.60281139374359       -2.45899007613442        0.69256236877046
