 xtb: 6.5.1 (fef0646)
          01242317113D

 30 28  0     0  0            999 V2000
   -2.4706    0.2302   -0.5996 N   0  0  0  0  0  0  0  0  0  0  0  0
   -1.9576    0.7683    0.6942 C   0  0  0  0  0  0  0  0  0  0  0  0
   -0.7491    1.6831    0.5175 C   0  0  0  0  0  0  0  0  0  0  0  0
    0.4919    0.9534    0.0027 C   0  0  0  0  0  0  0  0  0  0  0  0
    1.7111    1.8690   -0.1232 C   0  0  0  0  0  0  0  0  0  0  0  0
    2.9447    1.1710   -0.7026 C   0  0  0  0  0  0  0  0  0  0  0  0
    3.5114    0.0765    0.2025 C   0  0  0  0  0  0  0  0  0  0  0  0
    4.7756   -0.5720   -0.3638 C   0  0  0  0  0  0  0  0  0  0  0  0
    5.3330   -1.6621    0.5396 C   0  0  0  0  0  0  0  0  0  0  0  0
   -5.3197   -1.7612   -0.0323 Cl  0  0  0  0  0  0  0  0  0  0  0  0
   -2.7190    0.9940   -1.2432 H   0  0  0  0  0  0  0  0  0  0  0  0
   -3.3125   -0.3534   -0.4644 H   0  0  0  0  0  0  0  0  0  0  0  0
   -1.7626   -0.3539   -1.0708 H   0  0  0  0  0  0  0  0  0  0  0  0
   -1.6965   -0.0629    1.3600 H   0  0  0  0  0  0  0  0  0  0  0  0
   -2.7661    1.3069    1.2044 H   0  0  0  0  0  0  0  0  0  0  0  0
   -0.5068    2.1753    1.4680 H   0  0  0  0  0  0  0  0  0  0  0  0
   -1.0048    2.4976   -0.1697 H   0  0  0  0  0  0  0  0  0  0  0  0
    0.2797    0.4965   -0.9704 H   0  0  0  0  0  0  0  0  0  0  0  0
    0.7210    0.1138    0.6689 H   0  0  0  0  0  0  0  0  0  0  0  0
    1.9552    2.2891    0.8597 H   0  0  0  0  0  0  0  0  0  0  0  0
    1.4437    2.7334   -0.7448 H   0  0  0  0  0  0  0  0  0  0  0  0
    3.7319    1.9087   -0.9045 H   0  0  0  0  0  0  0  0  0  0  0  0
    2.6975    0.7429   -1.6814 H   0  0  0  0  0  0  0  0  0  0  0  0
    2.7539   -0.6968    0.3753 H   0  0  0  0  0  0  0  0  0  0  0  0
    3.7241    0.4930    1.1945 H   0  0  0  0  0  0  0  0  0  0  0  0
    5.5351    0.2020   -0.5352 H   0  0  0  0  0  0  0  0  0  0  0  0
    4.5586   -0.9804   -1.3594 H   0  0  0  0  0  0  0  0  0  0  0  0
    5.5883   -1.2667    1.5246 H   0  0  0  0  0  0  0  0  0  0  0  0
    6.2349   -2.1182    0.1254 H   0  0  0  0  0  0  0  0  0  0  0  0
    4.6033   -2.4594    0.6932 H   0  0  0  0  0  0  0  0  0  0  0  0
  1  2  1  0  0  0  0
  2  3  1  0  0  0  0
  3  4  1  0  0  0  0
  4  5  1  0  0  0  0
  5  6  1  0  0  0  0
  6  7  1  0  0  0  0
  7  8  1  0  0  0  0
  8  9  1  0  0  0  0
  1 11  1  0  0  0  0
  1 12  1  0  0  0  0
  1 13  1  0  0  0  0
  2 14  1  0  0  0  0
  2 15  1  0  0  0  0
  3 16  1  0  0  0  0
  3 17  1  0  0  0  0
  4 18  1  0  0  0  0
  4 19  1  0  0  0  0
  5 20  1  0  0  0  0
  5 21  1  0  0  0  0
  6 22  1  0  0  0  0
  6 23  1  0  0  0  0
  7 24  1  0  0  0  0
  7 25  1  0  0  0  0
  8 26  1  0  0  0  0
  8 27  1  0  0  0  0
  9 28  1  0  0  0  0
  9 29  1  0  0  0  0
  9 30  1  0  0  0  0
M  END
