 xtb: 6.5.1 (fef0646)
          01242315373D

 49 53  0     0  0            999 V2000
    3.4234   -0.7799    1.5046 N   0  0  0  0  0  0  0  0  0  0  0  0
    2.6885   -0.5718    0.2383 C   0  0  0  0  0  0  0  0  0  0  0  0
    3.4699    0.3588   -0.6929 C   0  0  0  0  0  0  0  0  0  0  0  0
    4.6992   -0.2839   -1.2413 C   0  0  0  0  0  0  0  0  0  0  0  0
    4.9463   -0.6928   -2.5169 C   0  0  0  0  0  0  0  0  0  0  0  0
    6.2134   -1.2828   -2.6838 C   0  0  0  0  0  0  0  0  0  0  0  0
    6.9540   -1.3319   -1.5312 C   0  0  0  0  0  0  0  0  0  0  0  0
    8.2555   -1.8681   -1.3210 C   0  0  0  0  0  0  0  0  0  0  0  0
    9.0023   -1.8605   -0.1689 C   0  0  0  0  0  0  0  0  0  0  0  0
   10.2522   -2.4893   -0.2946 C   0  0  0  0  0  0  0  0  0  0  0  0
   11.2184   -2.5317    0.8429 C   0  0  0  0  0  0  0  0  0  0  0  0
   10.4628   -2.9908   -1.5671 C   0  0  0  0  0  0  0  0  0  0  0  0
   11.5701   -3.7287   -2.1127 C   0  0  0  0  0  0  0  0  0  0  0  0
   12.4703   -4.4661   -1.3602 C   0  0  0  0  0  0  0  0  0  0  0  0
   13.5247   -5.1881   -1.9241 C   0  0  0  0  0  0  0  0  0  0  0  0
   13.7600   -5.2496   -3.2871 C   0  0  0  0  0  0  0  0  0  0  0  0
   14.8342   -6.0044   -3.8843 C   0  0  0  0  0  0  0  0  0  0  0  0
   15.4621   -7.1490   -3.4429 C   0  0  0  0  0  0  0  0  0  0  0  0
   15.1103   -7.9366   -2.2236 C   0  0  0  0  0  0  0  0  0  0  0  0
   16.4881   -7.5630   -4.3250 C   0  0  0  0  0  0  0  0  0  0  0  0
   16.6333   -6.7538   -5.4046 C   0  0  0  0  0  0  0  0  0  0  0  0
   15.5026   -5.4627   -5.4028 S   0  0  0  0  0  0  0  0  0  0  0  0
   12.8683   -4.5004   -4.0966 C   0  0  0  0  0  0  0  0  0  0  0  0
   12.8862   -4.3962   -5.4263 N   0  0  0  0  0  0  0  0  0  0  0  0
   11.6711   -3.4579   -5.8997 S   0  0  0  0  0  0  0  0  0  0  0  0
   11.0538   -3.1385   -4.4457 N   0  0  0  0  0  0  0  0  0  0  0  0
   11.7817   -3.7605   -3.5172 C   0  0  0  0  0  0  0  0  0  0  0  0
    9.1166   -2.6445   -2.6205 S   0  0  0  0  0  0  0  0  0  0  0  0
    6.0752   -0.6225   -0.2213 S   0  0  0  0  0  0  0  0  0  0  0  0
    2.9186   -1.4244    2.1217 H   0  0  0  0  0  0  0  0  0  0  0  0
    3.5570    0.1146    1.9892 H   0  0  0  0  0  0  0  0  0  0  0  0
    4.3583   -1.1647    1.3036 H   0  0  0  0  0  0  0  0  0  0  0  0
    1.7184   -0.1264    0.4540 H   0  0  0  0  0  0  0  0  0  0  0  0
    2.5350   -1.5324   -0.2520 H   0  0  0  0  0  0  0  0  0  0  0  0
    3.7419    1.2702   -0.1594 H   0  0  0  0  0  0  0  0  0  0  0  0
    2.8311    0.6366   -1.5301 H   0  0  0  0  0  0  0  0  0  0  0  0
    4.2467   -0.5775   -3.3249 H   0  0  0  0  0  0  0  0  0  0  0  0
    6.5907   -1.6643   -3.6165 H   0  0  0  0  0  0  0  0  0  0  0  0
    8.6676   -1.4090    0.7490 H   0  0  0  0  0  0  0  0  0  0  0  0
   10.9837   -1.7389    1.5485 H   0  0  0  0  0  0  0  0  0  0  0  0
   12.2394   -2.3993    0.4923 H   0  0  0  0  0  0  0  0  0  0  0  0
   11.1518   -3.4828    1.3706 H   0  0  0  0  0  0  0  0  0  0  0  0
   12.3506   -4.5147   -0.2923 H   0  0  0  0  0  0  0  0  0  0  0  0
   14.1935   -5.7031   -1.2561 H   0  0  0  0  0  0  0  0  0  0  0  0
   14.0455   -7.8746   -2.0129 H   0  0  0  0  0  0  0  0  0  0  0  0
   15.6614   -7.5706   -1.3576 H   0  0  0  0  0  0  0  0  0  0  0  0
   15.3816   -8.9784   -2.3755 H   0  0  0  0  0  0  0  0  0  0  0  0
   17.0903   -8.4368   -4.1521 H   0  0  0  0  0  0  0  0  0  0  0  0
   17.3303   -6.8386   -6.2136 H   0  0  0  0  0  0  0  0  0  0  0  0
  1  2  1  0  0  0  0
  2  3  1  0  0  0  0
  3  4  1  0  0  0  0
  4  5  2  0  0  0  0
  5  6  4  0  0  0  0
  6  7  2  0  0  0  0
  7  8  1  0  0  0  0
  8  9  4  0  0  0  0
  9 10  4  0  0  0  0
 10 11  1  0  0  0  0
 10 12  4  0  0  0  0
 12 13  1  0  0  0  0
 13 14  4  0  0  0  0
 14 15  4  0  0  0  0
 15 16  4  0  0  0  0
 16 17  1  0  0  0  0
 17 18  4  0  0  0  0
 18 19  1  0  0  0  0
 18 20  4  0  0  0  0
 20 21  2  0  0  0  0
 17 22  1  0  0  0  0
 21 22  1  0  0  0  0
 16 23  1  0  0  0  0
 23 24  4  0  0  0  0
 24 25  2  0  0  0  0
 25 26  2  0  0  0  0
 13 27  1  0  0  0  0
 23 27  1  0  0  0  0
 26 27  4  0  0  0  0
  8 28  1  0  0  0  0
 12 28  1  0  0  0  0
  4 29  1  0  0  0  0
  7 29  1  0  0  0  0
  1 30  1  0  0  0  0
  1 31  1  0  0  0  0
  1 32  1  0  0  0  0
  2 33  1  0  0  0  0
  2 34  1  0  0  0  0
  3 35  1  0  0  0  0
  3 36  1  0  0  0  0
  5 37  1  0  0  0  0
  6 38  1  0  0  0  0
  9 39  1  0  0  0  0
 11 40  1  0  0  0  0
 11 41  1  0  0  0  0
 11 42  1  0  0  0  0
 14 43  1  0  0  0  0
 15 44  1  0  0  0  0
 19 45  1  0  0  0  0
 19 46  1  0  0  0  0
 19 47  1  0  0  0  0
 20 48  1  0  0  0  0
 21 49  1  0  0  0  0
M  CHG  1   1   1
M  END
