40
 xtb: 6.5.1 (fef0646)
N           -0.10163073787823       -1.36595371449153        1.22700064015323
C           -0.36530321023129       -2.78417500585339        0.87063412127879
C           -1.16364537708989       -2.91903441233477       -0.42303371240283
C           -0.40480767768805       -2.40866855863969       -1.66853850343573
C           -0.93132766747516       -1.08392652617972       -2.22160525824867
N           -0.76953494076826        0.04361355684867       -1.29675263619171
C           -1.92663209192678        0.88200462400963       -0.85431871918191
C           -1.23030047514119        2.03133541519111       -0.02088110455513
C           -1.51145913798109        1.97094944598078        1.45439837996946
C           -2.39796118946889        1.13991589348214        1.99942716740735
C           -3.17718250954855        0.22296579598174        1.20225084851073
C           -2.98511730443101        0.09980036902710       -0.10798634226929
C            0.46112197378024        0.70273691249702       -1.07311603186774
C            0.24716664669144        1.86135358547842       -0.32086984915563
C            1.31643377402560        2.64929270545027        0.05692087648311
C            2.59643912711232        2.27570190908264       -0.31964962443292
C            2.80789464202584        1.12872685820093       -1.07063565833420
C            1.74829050558330        0.33402698866622       -1.45609727704788
Cl           2.99398535403301       -1.27664884637205        1.45718709852296
H           -0.98408638562634       -0.86273341603031        1.45265935696842
H            0.30887878911060       -0.85384230607603        0.42605527751776
H            0.54755360731712       -1.27324499260535        2.05642141032440
H           -0.90227599350763       -3.27467660435748        1.69857131723105
H            0.58210574282191       -3.32198438634208        0.77947033254397
H           -2.10868589419499       -2.37964858991997       -0.32904969160545
H           -1.45000314049666       -3.96954273439890       -0.56703691684589
H           -0.43614310674711       -3.16466803159993       -2.46556843965494
H            0.66136324946358       -2.30832227410210       -1.42788793254712
H           -1.99274892739667       -1.17558094575371       -2.46527133061636
H           -0.42798710292672       -0.81757083023652       -3.15726941741424
H           -2.37226820203182        1.30974080738957       -1.76404550767052
H           -1.56131043343159        3.01010613747545       -0.40224788906953
H           -0.93490880323115        2.62431319184085        2.09340586073575
H           -2.54771889644012        1.14560739173543        3.06946324667126
H           -3.93820992192730       -0.36554339745718        1.69195012542484
H           -3.59493792977843       -0.58489158177642       -0.67314444959109
H            1.14542457065996        3.53804585591930        0.63896762849180
H            3.43771187375715        2.88586805138398       -0.02771631302548
H            3.80999058437780        0.85543720181076       -1.35815296663190
H            1.90296758877231       -0.54863875878285       -2.04685706687156
