21
0.0
N           -0.82005  -0.95890   1.35933
C           -0.73615  -2.16417   0.49049
C           -0.37751  -1.84841  -0.96061
C            1.00406  -1.19892  -1.13252
C            1.02656   0.32519  -0.88494
C            2.04120   0.71873   0.15494
O            3.14134   1.37279  -0.28513
O            1.84753   0.43113   1.31651
Cl          -2.99644   1.30256  -0.17549
H           -1.50359  -0.28354   0.97900
H            0.09959  -0.48090   1.40172
H           -1.10034  -1.19066   2.32076
H           -1.69250  -2.69996   0.53184
H            0.00461  -2.85594   0.90792
H           -1.14080  -1.19454  -1.39576
H           -0.42501  -2.77391  -1.54881
H            1.39754  -1.41100  -2.13540
H            1.71219  -1.68526  -0.45136
H            0.04183   0.67758  -0.56575
H            1.24390   0.87251  -1.80819
H            3.71363   1.56273   0.47203
