  34

 N          1.0614284017        0.9455666302       -2.4226030441
 C          2.5304668833        1.0711668911       -2.4796284388
 C          3.0787745288        1.3435982154       -1.0777481081
 C          4.5786323160        1.3029766641       -1.0846010384
 C          5.3245879612        2.4765494007       -1.1676794004
 C          6.7006272172        2.4387497050       -1.2032089167
 C          5.2454669115        0.0810231467       -1.0393440202
 C          6.6218674039        0.0270785514       -1.0690504191
 C          7.3695598583        1.2078884040       -1.1576763315
 N          8.7422560041        1.0582767526       -1.1738198901
 N          9.4297192247        2.1191747663       -1.3465504633
 C         10.8038508404        1.9683797705       -1.3785503965
 C         11.4642916822        0.7345770543       -1.4506233033
 C         12.8409901638        0.6944018366       -1.5092860481
 C         13.5770033041        1.8716257133       -1.4940262299
 C         12.9300786551        3.0967824512       -1.4249542009
 C         11.5520406296        3.1507889827       -1.3735982954
 Cl         0.3432692933       -1.2117449553       -0.3788100486
 H          0.6679277234        0.7036032921       -3.3345375114
 H          0.6351317586        1.8099980243       -2.0798977418
 H          0.7985803319        0.1848781932       -1.7433268823
 H          2.8076751277        1.8798949196       -3.1566923206
 H          2.9484609631        0.1357736076       -2.8500302276
 H          2.6896571717        0.5745053704       -0.4079429559
 H          2.7402393111        2.3174685457       -0.7259767954
 H          4.8190002524        3.4300801099       -1.1964334954
 H          7.2887773120        3.3416199831       -1.2593183523
 H          4.6728098318       -0.8317871752       -0.9655639346
 H          7.1467998924       -0.9145253817       -1.0297633048
 H         10.8720543785       -0.1674894759       -1.4672336737
 H         13.3482394023       -0.2570095141       -1.5680098221
 H         14.6545674556        1.8325605454       -1.5396064760
 H         13.5046664710        4.0103741641       -1.4149814913
 H         11.0292613375        4.0926248105       -1.3181964213
