 xtb: 6.5.1 (fef0646)
          01242317093D

 18 16  0     0  0            999 V2000
   -0.8267    0.3798   -0.6206 N   0  0  0  0  0  0  0  0  0  0  0  0
   -0.2921    1.2103    0.4919 C   0  0  0  0  0  0  0  0  0  0  0  0
    0.9473    2.0158    0.0921 C   0  0  0  0  0  0  0  0  0  0  0  0
    1.9303    1.2534   -0.7996 C   0  0  0  0  0  0  0  0  0  0  0  0
    2.2772   -0.1101   -0.2632 C   0  0  0  0  0  0  0  0  0  0  0  0
    3.1103   -0.1425    0.8005 O   0  0  0  0  0  0  0  0  0  0  0  0
    1.7936   -1.0983   -0.7755 O   0  0  0  0  0  0  0  0  0  0  0  0
   -3.6986   -1.3574    0.4406 Cl  0  0  0  0  0  0  0  0  0  0  0  0
   -1.0560    0.9518   -1.4467 H   0  0  0  0  0  0  0  0  0  0  0  0
   -1.6680   -0.1493   -0.3431 H   0  0  0  0  0  0  0  0  0  0  0  0
   -0.0893   -0.2960   -0.8790 H   0  0  0  0  0  0  0  0  0  0  0  0
   -0.0398    0.5434    1.3259 H   0  0  0  0  0  0  0  0  0  0  0  0
   -1.0776    1.8725    0.8759 H   0  0  0  0  0  0  0  0  0  0  0  0
    1.4684    2.3518    0.9967 H   0  0  0  0  0  0  0  0  0  0  0  0
    0.6366    2.9346   -0.4194 H   0  0  0  0  0  0  0  0  0  0  0  0
    2.8548    1.8243   -0.9319 H   0  0  0  0  0  0  0  0  0  0  0  0
    1.5113    1.1276   -1.8020 H   0  0  0  0  0  0  0  0  0  0  0  0
    3.2563   -1.0641    1.0565 H   0  0  0  0  0  0  0  0  0  0  0  0
  1  2  1  0  0  0  0
  2  3  1  0  0  0  0
  3  4  1  0  0  0  0
  4  5  1  0  0  0  0
  5  6  1  0  0  0  0
  5  7  2  0  0  0  0
  1  9  1  0  0  0  0
  1 10  1  0  0  0  0
  1 11  1  0  0  0  0
  2 12  1  0  0  0  0
  2 13  1  0  0  0  0
  3 14  1  0  0  0  0
  3 15  1  0  0  0  0
  4 16  1  0  0  0  0
  4 17  1  0  0  0  0
  6 18  1  0  0  0  0
M  END
