28

N          2.29864        0.64062        0.18865
C          2.84838       -0.17469       -0.92983
C          3.36988       -1.50700       -0.39634
O          4.39134       -1.25911        0.57676
C          4.98528       -2.38192        1.12706
C          4.56972       -3.68984        0.84043
C          5.18445       -4.78225        1.44347
C          6.22489       -4.58556        2.34316
C          6.67392       -3.29559        2.64400
C          7.73874       -3.12637        3.54333
C          8.21793       -1.85681        3.85278
C          7.63895       -0.73789        3.26511
C          6.57368       -0.89156        2.36899
C          6.06142       -2.16803        2.03475
H          1.95219        1.55162       -0.13750
H          3.03871        0.81062        0.88627
H          1.53004        0.16402        0.67788
H          3.64810        0.42221       -1.37640
H          2.03862       -0.32123       -1.65043
H          3.77777       -2.08050       -1.23663
H          2.53734       -2.04944        0.06842
H          3.76666       -3.91289        0.14559
H          4.85437       -5.79269        1.21256
H          6.68984       -5.45550        2.80447
H          8.20756       -3.98971        4.01294
H          9.04761       -1.74536        4.54747
H          8.02303        0.25038        3.49953
H          6.15351        0.00344        1.91948
