50
 xtb: 6.5.1 (fef0646)
N           -7.21393548316704       -3.50513082540943       -0.57454147579488
C           -8.13212263663569       -2.42930030622440       -1.04550696020828
C           -8.22090240237170       -1.25307566994777       -0.06781834279987
C           -6.98049501907686       -0.42866807949187        0.00158736852922
C           -6.93404982492014        0.92865050275025        0.11958026110975
C           -5.61795502047489        1.46049092877783        0.19206921248652
C           -4.62826377385879        0.51077079647988        0.13237584576397
C           -3.20909174982814        0.74809780414039        0.17176507547630
C           -2.59271622308112        1.95703647009050        0.35709074056046
C           -1.17696337342240        1.91323148617609        0.32767448183500
C           -0.35279574270661        3.14780059643514        0.44527735959188
C           -0.67820442969369        0.63701042786324        0.14567124170568
C            0.70761439945786        0.20598504808167        0.08481070080235
C            1.06958489332665       -0.84567299670772       -0.73775263395801
C            2.38726897358282       -1.29022018397829       -0.86194555408431
C            3.43633478441953       -0.71625651073870       -0.16976964617421
C            4.79542394255421       -1.20434529209306       -0.35861063452703
C            5.96136388802571       -0.47117678557271       -0.39971083047828
C            6.04158306720007        1.01261801454393       -0.30251240713392
C            7.11926477874613       -1.28413241751684       -0.57532911068762
C            6.85356195330504       -2.60426860772790       -0.69359600699717
S            5.15970817443846       -2.89617211532119       -0.60295101623989
C            3.11817961108682        0.33484529594757        0.76242535335947
N            3.93737933086809        0.91760532527331        1.61683303150341
S            3.07979104167070        1.99452434738009        2.50001032787652
N            1.60369791507501        1.70697453269753        1.83756878348845
C            1.74547366766482        0.80015844639675        0.89090413584203
S           -2.00240442554101       -0.48592502397124       -0.03941601950174
S           -5.35874168064670       -1.07644186881407        0.03810736623868
Cl           2.66624395766855        2.31326277025094       -2.06825184896802
H           -6.28444836135300       -3.10892406622474       -0.37878612289897
H           -7.10874161637591       -4.26394432879770       -1.25270214426029
H           -7.55851329921767       -3.91246523147496        0.31338777134397
H           -9.11645586810262       -2.85246354985952       -1.23433816017915
H           -7.77243242187741       -2.05888540189148       -2.01974569704223
H           -8.46831869461168       -1.62840064090806        0.92669475421119
H           -9.05353725218117       -0.59689971905555       -0.35490772012051
H           -7.81890100844788        1.52010340412782        0.31338149539306
H           -5.41499010512433        2.49467906791798        0.43235430827205
H           -3.13617487128176        2.87885722961777        0.48587222223969
H           -0.12327606450550        3.36765927094281        1.46684881542977
H           -0.87302843544665        4.00988689263718        0.00404012229052
H            0.59159567112505        3.03804110493646       -0.11062742289695
H            0.30125954285473       -1.32482034665400       -1.32088471098928
H            2.61018333400615       -2.10391499071097       -1.53128121188198
H            5.13915651107903        1.47603795016376       -0.69058951841249
H            6.89039862523425        1.39536058987697       -0.86499206330632
H            6.15826242774325        1.32479328094492        0.73951452067523
H            8.11620343522164       -0.87438410465311       -0.60426030601665
H            7.58479468086171       -3.38068340087067       -0.82010386235997
