 xtb: 6.5.1 (fef0646)
          02032319183D

 50 53  0     0  0            999 V2000
   -7.2146   -3.5063   -0.5627 N   0  0  0  0  0  0  0  0  0  0  0  0
   -8.1193   -2.4257   -1.0497 C   0  0  0  0  0  0  0  0  0  0  0  0
   -8.2221   -1.2514   -0.0725 C   0  0  0  0  0  0  0  0  0  0  0  0
   -6.9797   -0.4324    0.0258 C   0  0  0  0  0  0  0  0  0  0  0  0
   -6.9314    0.9069    0.2513 C   0  0  0  0  0  0  0  0  0  0  0  0
   -5.6154    1.4397    0.3170 C   0  0  0  0  0  0  0  0  0  0  0  0
   -4.6278    0.5089    0.1438 C   0  0  0  0  0  0  0  0  0  0  0  0
   -3.2091    0.7501    0.1598 C   0  0  0  0  0  0  0  0  0  0  0  0
   -2.5926    1.9602    0.3368 C   0  0  0  0  0  0  0  0  0  0  0  0
   -1.1768    1.9160    0.3061 C   0  0  0  0  0  0  0  0  0  0  0  0
   -0.3513    3.1504    0.4155 C   0  0  0  0  0  0  0  0  0  0  0  0
   -0.6784    0.6388    0.1313 C   0  0  0  0  0  0  0  0  0  0  0  0
    0.7073    0.2069    0.0762 C   0  0  0  0  0  0  0  0  0  0  0  0
    1.0712   -0.8483   -0.7409 C   0  0  0  0  0  0  0  0  0  0  0  0
    2.3890   -1.2939   -0.8592 C   0  0  0  0  0  0  0  0  0  0  0  0
    3.4363   -0.7175   -0.1663 C   0  0  0  0  0  0  0  0  0  0  0  0
    4.7957   -1.2065   -0.3500 C   0  0  0  0  0  0  0  0  0  0  0  0
    5.9622   -0.4741   -0.3893 C   0  0  0  0  0  0  0  0  0  0  0  0
    6.0433    1.0098   -0.2952 C   0  0  0  0  0  0  0  0  0  0  0  0
    7.1201   -1.2882   -0.5602 C   0  0  0  0  0  0  0  0  0  0  0  0
    6.8539   -2.6084   -0.6765 C   0  0  0  0  0  0  0  0  0  0  0  0
    5.1595   -2.9008   -0.5823 S   0  0  0  0  0  0  0  0  0  0  0  0
    3.1157    0.3367    0.7615 C   0  0  0  0  0  0  0  0  0  0  0  0
    3.9320    0.9226    1.6162 N   0  0  0  0  0  0  0  0  0  0  0  0
    3.0677    2.0058    2.4904 S   0  0  0  0  0  0  0  0  0  0  0  0
    1.5976    1.7130    1.8271 N   0  0  0  0  0  0  0  0  0  0  0  0
    1.7427    0.8029    0.8843 C   0  0  0  0  0  0  0  0  0  0  0  0
   -2.0031   -0.4841   -0.0542 S   0  0  0  0  0  0  0  0  0  0  0  0
   -5.3612   -1.0516   -0.1079 S   0  0  0  0  0  0  0  0  0  0  0  0
    2.6738    2.3072   -2.0776 Cl  0  0  0  0  0  0  0  0  0  0  0  0
   -6.2872   -3.1088   -0.3643 H   0  0  0  0  0  0  0  0  0  0  0  0
   -7.1005   -4.2603   -1.2524 H   0  0  0  0  0  0  0  0  0  0  0  0
   -7.5673   -3.9179    0.3107 H   0  0  0  0  0  0  0  0  0  0  0  0
   -9.1122   -2.8503   -1.2413 H   0  0  0  0  0  0  0  0  0  0  0  0
   -7.7628   -2.0576   -2.0186 H   0  0  0  0  0  0  0  0  0  0  0  0
   -8.4752   -1.6277    0.9239 H   0  0  0  0  0  0  0  0  0  0  0  0
   -9.0516   -0.5952   -0.3603 H   0  0  0  0  0  0  0  0  0  0  0  0
   -7.8177    1.5098    0.3745 H   0  0  0  0  0  0  0  0  0  0  0  0
   -5.4138    2.4849    0.4907 H   0  0  0  0  0  0  0  0  0  0  0  0
   -3.1361    2.8801    0.4775 H   0  0  0  0  0  0  0  0  0  0  0  0
   -0.1234    3.3708    1.4578 H   0  0  0  0  0  0  0  0  0  0  0  0
   -0.8720    4.0099   -0.0070 H   0  0  0  0  0  0  0  0  0  0  0  0
    0.5923    3.0372   -0.1184 H   0  0  0  0  0  0  0  0  0  0  0  0
    0.3022   -1.3262   -1.3219 H   0  0  0  0  0  0  0  0  0  0  0  0
    2.6112   -2.1059   -1.5292 H   0  0  0  0  0  0  0  0  0  0  0  0
    5.1402    1.4752   -0.6899 H   0  0  0  0  0  0  0  0  0  0  0  0
    6.8917    1.3939   -0.8621 H   0  0  0  0  0  0  0  0  0  0  0  0
    6.1576    1.3247    0.7415 H   0  0  0  0  0  0  0  0  0  0  0  0
    8.1166   -0.8758   -0.5992 H   0  0  0  0  0  0  0  0  0  0  0  0
    7.5849   -3.3821   -0.8140 H   0  0  0  0  0  0  0  0  0  0  0  0
  1  2  1  0  0  0  0
  2  3  1  0  0  0  0
  3  4  1  0  0  0  0
  4  5  2  0  0  0  0
  5  6  4  0  0  0  0
  6  7  2  0  0  0  0
  7  8  1  0  0  0  0
  8  9  4  0  0  0  0
  9 10  4  0  0  0  0
 10 11  1  0  0  0  0
 10 12  4  0  0  0  0
 12 13  1  0  0  0  0
 13 14  4  0  0  0  0
 14 15  4  0  0  0  0
 15 16  4  0  0  0  0
 16 17  1  0  0  0  0
 17 18  2  0  0  0  0
 18 19  1  0  0  0  0
 18 20  4  0  0  0  0
 20 21  2  0  0  0  0
 17 22  1  0  0  0  0
 21 22  1  0  0  0  0
 16 23  1  0  0  0  0
 23 24  4  0  0  0  0
 24 25  2  0  0  0  0
 25 26  2  0  0  0  0
 13 27  1  0  0  0  0
 23 27  1  0  0  0  0
 26 27  4  0  0  0  0
  8 28  1  0  0  0  0
 12 28  1  0  0  0  0
  4 29  1  0  0  0  0
  7 29  1  0  0  0  0
  1 31  1  0  0  0  0
  1 32  1  0  0  0  0
  1 33  1  0  0  0  0
  2 34  1  0  0  0  0
  2 35  1  0  0  0  0
  3 36  1  0  0  0  0
  3 37  1  0  0  0  0
  5 38  1  0  0  0  0
  6 39  1  0  0  0  0
  9 40  1  0  0  0  0
 11 41  1  0  0  0  0
 11 42  1  0  0  0  0
 11 43  1  0  0  0  0
 14 44  1  0  0  0  0
 15 45  1  0  0  0  0
 19 46  1  0  0  0  0
 19 47  1  0  0  0  0
 19 48  1  0  0  0  0
 20 49  1  0  0  0  0
 21 50  1  0  0  0  0
M  END
