 xtb: 6.5.1 (fef0646)
          01232313513D

 21 21  0     0  0            999 V2000
    0.9447    0.1938   -0.0593 N   0  0  0  0  0  0  0  0  0  0  0  0
    2.4380    0.1962   -0.0652 C   0  0  0  0  0  0  0  0  0  0  0  0
    2.9633    0.1714   -1.5010 C   0  0  0  0  0  0  0  0  0  0  0  0
    4.4716    0.1698   -1.5008 C   0  0  0  0  0  0  0  0  0  0  0  0
    5.1882   -1.0213   -1.4980 C   0  0  0  0  0  0  0  0  0  0  0  0
    4.5032   -2.1699   -1.4664 F   0  0  0  0  0  0  0  0  0  0  0  0
    6.5793   -1.0387   -1.5159 C   0  0  0  0  0  0  0  0  0  0  0  0
    7.2335   -2.1902   -1.5128 F   0  0  0  0  0  0  0  0  0  0  0  0
    7.2780    0.1697   -1.5291 C   0  0  0  0  0  0  0  0  0  0  0  0
    8.5994    0.1698   -1.5440 F   0  0  0  0  0  0  0  0  0  0  0  0
    6.5795    1.3783   -1.5155 C   0  0  0  0  0  0  0  0  0  0  0  0
    7.2341    2.5296   -1.5118 F   0  0  0  0  0  0  0  0  0  0  0  0
    5.1886    1.3608   -1.4977 C   0  0  0  0  0  0  0  0  0  0  0  0
    4.5027    2.5092   -1.4656 F   0  0  0  0  0  0  0  0  0  0  0  0
    0.5777    0.2103    0.9011 H   0  0  0  0  0  0  0  0  0  0  0  0
    0.5918   -0.6498   -0.5323 H   0  0  0  0  0  0  0  0  0  0  0  0
    0.5890    1.0190   -0.5618 H   0  0  0  0  0  0  0  0  0  0  0  0
    2.7904   -0.6823    0.4781 H   0  0  0  0  0  0  0  0  0  0  0  0
    2.7875    1.0949    0.4462 H   0  0  0  0  0  0  0  0  0  0  0  0
    2.6184    1.0528   -2.0440 H   0  0  0  0  0  0  0  0  0  0  0  0
    2.6162   -0.7264   -2.0148 H   0  0  0  0  0  0  0  0  0  0  0  0
  1  2  1  0  0  0  0
  2  3  1  0  0  0  0
  3  4  1  0  0  0  0
  4  5  4  0  0  0  0
  5  6  1  0  0  0  0
  5  7  4  0  0  0  0
  7  8  1  0  0  0  0
  7  9  4  0  0  0  0
  9 10  1  0  0  0  0
  9 11  4  0  0  0  0
 11 12  1  0  0  0  0
  4 13  4  0  0  0  0
 11 13  4  0  0  0  0
 13 14  1  0  0  0  0
  1 15  1  0  0  0  0
  1 16  1  0  0  0  0
  1 17  1  0  0  0  0
  2 18  1  0  0  0  0
  2 19  1  0  0  0  0
  3 20  1  0  0  0  0
  3 21  1  0  0  0  0
M  CHG  1   1   1
M  END
