  42

 N         -6.4160274527       -0.2205252843       -0.9254218645
 C         -6.1336756841        0.6265009296        0.2625937027
 C         -4.7011571731        1.1324994377        0.2342225883
 O         -3.7844261842        0.0458215006        0.2158452773
 C         -2.4794884733        0.3944000280        0.1622073193
 C         -1.9862078653        1.7179429936        0.1128384672
 C         -0.6499757711        1.9783551644        0.0566045686
 C          0.3211709020        0.9561791629        0.0428897369
 C         -0.1217321140       -0.3959328958        0.0887156652
 C          0.8048537573       -1.4742429737        0.0718595564
 C          0.3089914584       -2.7773183935        0.1252913330
 C         -1.0437764082       -3.0329360864        0.1952092108
 C         -1.9454117502       -1.9950162062        0.2100515989
 C         -1.5113545711       -0.6772175984        0.1536034791
 C          1.7330934681        1.2410103481       -0.0141885063
 C          2.2300651444        2.5457081562       -0.0486167208
 C          3.5871962003        2.8062597972       -0.1048963322
 C          4.4924600667        1.7805769717       -0.1296850257
 C          4.0572814520        0.4433246626       -0.0965208055
 C          4.9773202961       -0.6204270180       -0.1217711581
 C          4.5405034119       -1.9154763346       -0.0876594174
 C          3.1867437660       -2.1995277759       -0.0259856913
 C          2.2277653650       -1.1900996258        0.0024309847
 C          2.6660144132        0.1620263820       -0.0360056043
 H         -7.3604669060       -0.6220382623       -0.8979996719
 H         -5.7345585564       -0.9862854498       -0.9658742231
 H         -6.3192489808        0.3238332418       -1.7895372157
 H         -6.2872861127        0.0354084087        1.1726150197
 H         -6.8432523151        1.4605765626        0.3072264804
 H         -4.4796550651        1.7499324351        1.1129777018
 H         -4.5290774230        1.7290525505       -0.6683101503
 H         -2.6777745985        2.5404839732        0.1190628155
 H         -0.3351394870        3.0049423888        0.0192098057
 H          0.9868328005       -3.6109325712        0.1148923378
 H         -1.3973119420       -4.0501380673        0.2385624437
 H         -3.0029492807       -2.1856833915        0.2705717729
 H          1.5525230812        3.3791487867       -0.0291721936
 H          3.9344389706        3.8264871341       -0.1293508422
 H          5.5477204372        1.9889225210       -0.1737941598
 H          6.0307254135       -0.4035306630       -0.1689175186
 H          5.2551520891       -2.7222550181       -0.1083754228
 H          2.8828621666       -3.2297264249       -0.0011506358
          42
        -62.97926211
 N         -6.4337216685       -0.1822763685       -0.9441957682
 C         -6.1397546906        0.5835709902        0.2954063199
 C         -4.7138158260        1.1071319601        0.2758953109
 O         -3.7884537999        0.0304979059        0.1979347480
 C         -2.4862684669        0.3905086491        0.1528229211
 C         -2.0034258875        1.7183744663        0.1351649898
 C         -0.6690939296        1.9895222466        0.0821902443
 C          0.3091793223        0.9750141468        0.0450902084
 C         -0.1232331688       -0.3809369761        0.0666121099
 C          0.8112904784       -1.4520603588        0.0393391705
 C          0.3250659299       -2.7595415809        0.0666843476
 C         -1.0262520865       -3.0262872006        0.1227435797
 C         -1.9355426205       -1.9954294363        0.1510746609
 C         -1.5107483468       -0.6736130719        0.1207307287
 C          1.7190940346        1.2710581277       -0.0087038081
 C          2.2058453274        2.5797049329       -0.0348394016
 C          3.5611759154        2.8510817148       -0.0831528710
 C          4.4747630408        1.8328498219       -0.1068635724
 C          4.0501443829        0.4920167273       -0.0835412234
 C          4.9785227521       -0.5644634468       -0.1068541780
 C          4.5516079994       -1.8630016829       -0.0837079429
 C          3.1996032848       -2.1580842075       -0.0371107992
 C          2.2327055104       -1.1562240654       -0.0117233171
 C          2.6606507786        0.1996511299       -0.0348865814
 H         -5.7255833054       -0.9146957161       -1.0650293812
 H         -6.3906679729        0.4287215775       -1.7675934961
 H         -7.3604886816       -0.6235036743       -0.9139456581
 H         -6.2674643823       -0.0713431718        1.1646791177
 H         -6.8592054054        1.4021296756        0.4126594543
 H         -4.4872792520        1.6846500470        1.1799952276
 H         -4.5580591587        1.7468363231       -0.5994267590
 H         -2.7008596654        2.5354317605        0.1623158919
 H         -0.3612080172        3.0187844164        0.0697783182
 H          1.0094905880       -3.5875006171        0.0460015339
 H         -1.3722118784       -4.0467690733        0.1458781545
 H         -2.9918700935       -2.1949126319        0.2039605522
 H          1.5214158102        3.4074922580       -0.0180223993
 H          3.9005470680        3.8740641664       -0.1020938576
 H          5.5285563138        2.0497370494       -0.1438543825
 H          6.0305528949       -0.3389316500       -0.1427922272
 H          5.2727987488       -2.6639814454       -0.1015942612
 H          2.9033565772       -3.1906241080       -0.0199595637
