  42

 N          2.3335392753        0.3963757811       -0.9284049583
 C          2.8865651472       -0.5202042743        0.0945216347
 C          3.4354268927        0.2969569927        1.2584859753
 O          4.4435786238        1.1380824264        0.7020041494
 C          5.1820130454        1.9258866359        1.5267254436
 C          4.9788119253        2.0444283086        2.8794961065
 C          5.7873205016        2.8898518174        3.6370008063
 C          6.7987325867        3.6484324361        3.0779840013
 C          7.0051765404        3.5661948445        1.6737551220
 C          7.9957245591        4.3511076455        1.0239915821
 C          8.1966565517        4.1826232118       -0.3360858893
 C          7.4420005975        3.2799727542       -1.0815642054
 C          6.4564914575        2.5461261892       -0.4804655215
 C          6.2134023732        2.6799628199        0.8986733769
 C          7.6533725279        4.5160705375        3.8763744645
 C          7.5721688909        4.5660824885        5.2578356380
 C          8.3778504230        5.4195657017        6.0106979079
 C          9.2731284321        6.2473464401        5.3919077959
 C          9.4051356483        6.2281316772        3.9894551198
 C         10.3230719060        7.0798150786        3.3440573242
 C         10.4423369047        7.0590152429        1.9822311987
 C          9.6759550650        6.1753776731        1.2227587301
 C          8.7732551163        5.3039245882        1.8078580216
 C          8.6046738095        5.3424866425        3.2186400526
 H          2.1092184239       -0.1052639873       -1.7948768291
 H          3.0424355269        1.1153470596       -1.1255866701
 H          1.4871886442        0.8658289563       -0.5846546292
 H          3.7027222549       -1.0935330320       -0.3448746949
 H          2.1174089180       -1.2016341892        0.4535473359
 H          3.8615209661       -0.3678053603        2.0153091618
 H          2.6534650771        0.9080906843        1.7227781828
 H          4.2055347708        1.4922929337        3.3877135307
 H          5.5897395807        2.9413840155        4.6947641059
 H          8.9590112763        4.7463140379       -0.8485765475
 H          7.6428553653        3.1708100428       -2.1368686322
 H          5.8731101458        1.8425137868       -1.0492030020
 H          6.8788858377        3.9363848625        5.7909840569
 H          8.2829330845        5.4245044024        7.0864156255
 H          9.8928615980        6.9225608545        5.9636246968
 H         10.9228632679        7.7487716644        3.9438563621
 H         11.1351724139        7.7209757249        1.4838893771
 H          9.8080340469        6.1944138841        0.1533046922
