11
 xtb: 6.5.1 (fef0646)
N           -1.41692154434370        0.52656718585749       -0.10420551182812
C           -0.68425557808848       -0.73436439965114        0.21336036501814
C            0.76321543927212       -0.61620898199886       -0.25305387231856
F            1.21690658332238        0.57628130281510        0.13803889816774
H           -0.86932501500884        1.32958285595678        0.16515164592675
H           -2.34074142972088        0.55745340948749        0.39151922240162
H           -1.61926741389347        0.57080721398841       -1.11452464602429
H           -1.18998209534108       -1.60407647036569       -0.18685588124318
H           -0.68106007974530       -0.83949047704914        1.32393927872101
H            0.82438182098426       -0.64437391962026       -1.35107453710107
H            1.40548227321552       -1.39677144006940        0.15493119691240
