 xtb: 6.5.1 (fef0646)
          01232313403D

 22 22  0     0  0            999 V2000
    1.7060   -0.1903   -1.2368 N   0  0  0  0  0  0  0  0  0  0  0  0
    2.5976   -0.1369   -0.0072 C   0  0  0  0  0  0  0  0  0  0  0  0
    3.0319    1.2667    0.2374 C   0  0  0  0  0  0  0  0  0  0  0  0
    4.2774    1.6879   -0.0084 C   0  0  0  0  0  0  0  0  0  0  0  0
    4.8130    3.0173    0.1977 C   0  0  0  0  0  0  0  0  0  0  0  0
    4.1005    4.0390    0.8339 C   0  0  0  0  0  0  0  0  0  0  0  0
    4.6670    5.2862    1.0043 C   0  0  0  0  0  0  0  0  0  0  0  0
    5.9497    5.5422    0.5428 C   0  0  0  0  0  0  0  0  0  0  0  0
    6.6690    4.5396   -0.0883 C   0  0  0  0  0  0  0  0  0  0  0  0
    6.1087    3.2890   -0.2555 C   0  0  0  0  0  0  0  0  0  0  0  0
    1.3846   -1.1464   -1.4327 H   0  0  0  0  0  0  0  0  0  0  0  0
    2.2267    0.1659   -2.0489 H   0  0  0  0  0  0  0  0  0  0  0  0
    0.8884    0.4163   -1.0916 H   0  0  0  0  0  0  0  0  0  0  0  0
    3.4532   -0.7877   -0.1894 H   0  0  0  0  0  0  0  0  0  0  0  0
    2.0168   -0.5284    0.8295 H   0  0  0  0  0  0  0  0  0  0  0  0
    2.2816    1.9307    0.6377 H   0  0  0  0  0  0  0  0  0  0  0  0
    4.9920    0.9734   -0.4027 H   0  0  0  0  0  0  0  0  0  0  0  0
    3.1070    3.8548    1.2123 H   0  0  0  0  0  0  0  0  0  0  0  0
    4.1090    6.0641    1.5026 H   0  0  0  0  0  0  0  0  0  0  0  0
    6.3879    6.5185    0.6795 H   0  0  0  0  0  0  0  0  0  0  0  0
    7.6689    4.7327   -0.4451 H   0  0  0  0  0  0  0  0  0  0  0  0
    6.6747    2.5092   -0.7445 H   0  0  0  0  0  0  0  0  0  0  0  0
  1  2  1  0  0  0  0
  2  3  1  0  0  0  0
  3  4  2  0  0  0  0
  4  5  1  0  0  0  0
  5  6  4  0  0  0  0
  6  7  4  0  0  0  0
  7  8  4  0  0  0  0
  8  9  4  0  0  0  0
  5 10  4  0  0  0  0
  9 10  4  0  0  0  0
  1 11  1  0  0  0  0
  1 12  1  0  0  0  0
  1 13  1  0  0  0  0
  2 14  1  0  0  0  0
  2 15  1  0  0  0  0
  3 16  1  0  0  0  0
  4 17  1  0  0  0  0
  6 18  1  0  0  0  0
  7 19  1  0  0  0  0
  8 20  1  0  0  0  0
  9 21  1  0  0  0  0
 10 22  1  0  0  0  0
M  CHG  1   1   1
M  END
