36
0.05
N           -4.42915   0.19353  -1.66822
C           -4.80209   1.33192  -0.78517
C           -4.12334   1.23975   0.57946
C           -2.62917   1.13921   0.47746
C           -2.00598  -0.10042   0.44592
C           -0.63738  -0.20239   0.31226
C            0.15743   0.93866   0.20030
C            1.60860   0.87359   0.05538
C            2.35154  -0.23524   0.18316
C            3.80259  -0.30143   0.03621
C            4.55874   0.77259  -0.43806
C            5.92906   0.67174  -0.56482
C            6.57432  -0.50075  -0.22358
C            5.84421  -1.57607   0.24390
C            4.47411  -1.47882   0.37137
C           -0.47717   2.18099   0.21777
C           -1.84681   2.27830   0.35190
Cl          -4.47414  -2.69803   0.28949
H           -3.42772   0.23428  -1.91541
H           -4.97006   0.17922  -2.54848
H           -4.57954  -0.70978  -1.18064
H           -5.89250   1.36615  -0.66603
H           -4.52701   2.27411  -1.27476
H           -4.50132   0.36360   1.11916
H           -4.38747   2.10308   1.20261
H           -2.61088  -0.99035   0.51193
H           -0.18155  -1.17711   0.27957
H            2.10416   1.80533  -0.15304
H            1.86006  -1.15927   0.43211
H            4.06827   1.68865  -0.71945
H            6.49844   1.51083  -0.93325
H            7.64599  -0.57715  -0.32322
H            6.34628  -2.49308   0.50978
H            3.90674  -2.31905   0.73740
H            0.11871   3.07434   0.12516
H           -2.32324   3.24530   0.35689
