 xtb: 6.5.1 (fef0646)
          02032320583D

 41 40  0     0  0            999 V2000
    6.7009   -1.0690   -0.4661 N   0  0  0  0  0  0  0  0  0  0  0  0
    6.3885    0.1348    0.3598 C   0  0  0  0  0  0  0  0  0  0  0  0
    5.0777    0.8084   -0.0357 C   0  0  0  0  0  0  0  0  0  0  0  0
    3.8434   -0.0435    0.2586 C   0  0  0  0  0  0  0  0  0  0  0  0
    2.5324    0.6612   -0.0927 C   0  0  0  0  0  0  0  0  0  0  0  0
    1.2976   -0.1906    0.2025 C   0  0  0  0  0  0  0  0  0  0  0  0
   -0.0143    0.5176   -0.1365 C   0  0  0  0  0  0  0  0  0  0  0  0
   -1.2492   -0.3309    0.1680 C   0  0  0  0  0  0  0  0  0  0  0  0
   -2.5615    0.3809   -0.1615 C   0  0  0  0  0  0  0  0  0  0  0  0
   -3.7967   -0.4622    0.1565 C   0  0  0  0  0  0  0  0  0  0  0  0
   -5.1093    0.2539   -0.1628 C   0  0  0  0  0  0  0  0  0  0  0  0
   -6.3459   -0.5843    0.1648 C   0  0  0  0  0  0  0  0  0  0  0  0
   -7.6486    0.1366   -0.1476 C   0  0  0  0  0  0  0  0  0  0  0  0
    7.6071   -1.4785   -0.2099 H   0  0  0  0  0  0  0  0  0  0  0  0
    6.7344   -0.8271   -1.4631 H   0  0  0  0  0  0  0  0  0  0  0  0
    5.9864   -1.7961   -0.3455 H   0  0  0  0  0  0  0  0  0  0  0  0
    7.2174    0.8479    0.2744 H   0  0  0  0  0  0  0  0  0  0  0  0
    6.3524   -0.1491    1.4175 H   0  0  0  0  0  0  0  0  0  0  0  0
    5.1028    1.0570   -1.1018 H   0  0  0  0  0  0  0  0  0  0  0  0
    4.9795    1.7697    0.4821 H   0  0  0  0  0  0  0  0  0  0  0  0
    3.8357   -0.3245    1.3175 H   0  0  0  0  0  0  0  0  0  0  0  0
    3.9040   -0.9894   -0.2892 H   0  0  0  0  0  0  0  0  0  0  0  0
    2.5393    0.9445   -1.1511 H   0  0  0  0  0  0  0  0  0  0  0  0
    2.4654    1.6070    0.4562 H   0  0  0  0  0  0  0  0  0  0  0  0
    1.2957   -0.4796    1.2593 H   0  0  0  0  0  0  0  0  0  0  0  0
    1.3603   -1.1335   -0.3519 H   0  0  0  0  0  0  0  0  0  0  0  0
   -0.0157    0.8028   -1.1944 H   0  0  0  0  0  0  0  0  0  0  0  0
   -0.0739    1.4627    0.4146 H   0  0  0  0  0  0  0  0  0  0  0  0
   -1.2441   -0.6197    1.2249 H   0  0  0  0  0  0  0  0  0  0  0  0
   -1.1931   -1.2742   -0.3866 H   0  0  0  0  0  0  0  0  0  0  0  0
   -2.5712    0.6630   -1.2202 H   0  0  0  0  0  0  0  0  0  0  0  0
   -2.6129    1.3278    0.3874 H   0  0  0  0  0  0  0  0  0  0  0  0
   -3.7828   -0.7484    1.2140 H   0  0  0  0  0  0  0  0  0  0  0  0
   -3.7492   -1.4070   -0.3963 H   0  0  0  0  0  0  0  0  0  0  0  0
   -5.1262    0.5356   -1.2215 H   0  0  0  0  0  0  0  0  0  0  0  0
   -5.1529    1.2014    0.3858 H   0  0  0  0  0  0  0  0  0  0  0  0
   -6.3188   -0.8698    1.2234 H   0  0  0  0  0  0  0  0  0  0  0  0
   -6.2979   -1.5311   -0.3867 H   0  0  0  0  0  0  0  0  0  0  0  0
   -7.7301    1.0655    0.4178 H   0  0  0  0  0  0  0  0  0  0  0  0
   -8.5212   -0.4724    0.0938 H   0  0  0  0  0  0  0  0  0  0  0  0
   -7.7114    0.3962   -1.2049 H   0  0  0  0  0  0  0  0  0  0  0  0
  1  2  1  0  0  0  0
  2  3  1  0  0  0  0
  3  4  1  0  0  0  0
  4  5  1  0  0  0  0
  5  6  1  0  0  0  0
  6  7  1  0  0  0  0
  7  8  1  0  0  0  0
  8  9  1  0  0  0  0
  9 10  1  0  0  0  0
 10 11  1  0  0  0  0
 11 12  1  0  0  0  0
 12 13  1  0  0  0  0
  1 14  1  0  0  0  0
  1 15  1  0  0  0  0
  1 16  1  0  0  0  0
  2 17  1  0  0  0  0
  2 18  1  0  0  0  0
  3 19  1  0  0  0  0
  3 20  1  0  0  0  0
  4 21  1  0  0  0  0
  4 22  1  0  0  0  0
  5 23  1  0  0  0  0
  5 24  1  0  0  0  0
  6 25  1  0  0  0  0
  6 26  1  0  0  0  0
  7 27  1  0  0  0  0
  7 28  1  0  0  0  0
  8 29  1  0  0  0  0
  8 30  1  0  0  0  0
  9 31  1  0  0  0  0
  9 32  1  0  0  0  0
 10 33  1  0  0  0  0
 10 34  1  0  0  0  0
 11 35  1  0  0  0  0
 11 36  1  0  0  0  0
 12 37  1  0  0  0  0
 12 38  1  0  0  0  0
 13 39  1  0  0  0  0
 13 40  1  0  0  0  0
 13 41  1  0  0  0  0
M  CHG  1   1   1
M  END
