 xtb: 6.5.1 (fef0646)
          01242316583D

 34 34  0     0  0            999 V2000
    3.7854    0.9030   -0.8755 N   0  0  0  0  0  0  0  0  0  0  0  0
    3.5179   -0.1907   -1.8519 C   0  0  0  0  0  0  0  0  0  0  0  0
    3.2474   -1.5317   -1.1727 C   0  0  0  0  0  0  0  0  0  0  0  0
    1.9528   -1.5560   -0.4166 C   0  0  0  0  0  0  0  0  0  0  0  0
    0.7533   -1.7479   -1.0877 C   0  0  0  0  0  0  0  0  0  0  0  0
   -0.4424   -1.7543   -0.4060 C   0  0  0  0  0  0  0  0  0  0  0  0
    1.9227   -1.3620    0.9573 C   0  0  0  0  0  0  0  0  0  0  0  0
    0.7286   -1.3647    1.6430 C   0  0  0  0  0  0  0  0  0  0  0  0
   -0.4747   -1.5555    0.9703 C   0  0  0  0  0  0  0  0  0  0  0  0
   -1.6866   -1.5251    1.6611 N   0  0  0  0  0  0  0  0  0  0  0  0
   -2.6585   -0.8137    1.3418 N   0  0  0  0  0  0  0  0  0  0  0  0
   -2.6297    0.1581    0.3422 C   0  0  0  0  0  0  0  0  0  0  0  0
   -1.5891    1.0778    0.2717 C   0  0  0  0  0  0  0  0  0  0  0  0
   -1.5559    2.0284   -0.7237 C   0  0  0  0  0  0  0  0  0  0  0  0
   -2.5668    2.0813   -1.6634 C   0  0  0  0  0  0  0  0  0  0  0  0
   -3.6113    1.1791   -1.6024 C   0  0  0  0  0  0  0  0  0  0  0  0
   -3.6449    0.2261   -0.6082 C   0  0  0  0  0  0  0  0  0  0  0  0
    1.2563    2.0189    1.3492 Cl  0  0  0  0  0  0  0  0  0  0  0  0
    2.9752    1.0669   -0.2588 H   0  0  0  0  0  0  0  0  0  0  0  0
    3.9980    1.7930   -1.3468 H   0  0  0  0  0  0  0  0  0  0  0  0
    4.5876    0.6671   -0.2714 H   0  0  0  0  0  0  0  0  0  0  0  0
    4.3722   -0.2788   -2.5346 H   0  0  0  0  0  0  0  0  0  0  0  0
    2.6630    0.0811   -2.4815 H   0  0  0  0  0  0  0  0  0  0  0  0
    4.0702   -1.7704   -0.4909 H   0  0  0  0  0  0  0  0  0  0  0  0
    3.2381   -2.3404   -1.9125 H   0  0  0  0  0  0  0  0  0  0  0  0
    0.7665   -1.8915   -2.1548 H   0  0  0  0  0  0  0  0  0  0  0  0
   -1.3706   -1.8996   -0.9305 H   0  0  0  0  0  0  0  0  0  0  0  0
    2.8474   -1.2056    1.4864 H   0  0  0  0  0  0  0  0  0  0  0  0
    0.7082   -1.2081    2.7074 H   0  0  0  0  0  0  0  0  0  0  0  0
   -0.7984    1.0177    0.9994 H   0  0  0  0  0  0  0  0  0  0  0  0
   -0.7378    2.7283   -0.7706 H   0  0  0  0  0  0  0  0  0  0  0  0
   -2.5405    2.8252   -2.4429 H   0  0  0  0  0  0  0  0  0  0  0  0
   -4.4011    1.2202   -2.3347 H   0  0  0  0  0  0  0  0  0  0  0  0
   -4.4529   -0.4825   -0.5553 H   0  0  0  0  0  0  0  0  0  0  0  0
  1  2  1  0  0  0  0
  2  3  1  0  0  0  0
  3  4  1  0  0  0  0
  4  5  4  0  0  0  0
  5  6  4  0  0  0  0
  4  7  4  0  0  0  0
  7  8  4  0  0  0  0
  6  9  4  0  0  0  0
  8  9  4  0  0  0  0
  9 10  1  0  0  0  0
 10 11  2  0  0  0  0
 11 12  1  0  0  0  0
 12 13  4  0  0  0  0
 13 14  4  0  0  0  0
 14 15  4  0  0  0  0
 15 16  4  0  0  0  0
 12 17  4  0  0  0  0
 16 17  4  0  0  0  0
  1 19  1  0  0  0  0
  1 20  1  0  0  0  0
  1 21  1  0  0  0  0
  2 22  1  0  0  0  0
  2 23  1  0  0  0  0
  3 24  1  0  0  0  0
  3 25  1  0  0  0  0
  5 26  1  0  0  0  0
  6 27  1  0  0  0  0
  7 28  1  0  0  0  0
  8 29  1  0  0  0  0
 13 30  1  0  0  0  0
 14 31  1  0  0  0  0
 15 32  1  0  0  0  0
 16 33  1  0  0  0  0
 17 34  1  0  0  0  0
M  END
