24

N          1.20246        0.01471       -0.21674
C          2.65719       -0.00958       -0.14782
C          3.15878        1.37107        0.24535
C          4.68518        1.39592        0.31906
C          5.19263        2.78237        0.71182
C          6.71808        2.81279        0.78741
C          7.22293        4.19195        1.17754
Cl        -0.69520       -0.95052        1.60150
H          0.77413       -0.90015       -0.44284
H          0.74200        0.72666       -0.78593
H          0.74738        0.08758        0.73489
H          3.01980       -0.30276       -1.13739
H          2.94068       -0.77098        0.58500
H          2.73785        1.65831        1.21501
H          2.81568        2.11267       -0.48681
H          5.10552        1.11098       -0.65278
H          5.03002        0.65494        1.05152
H          4.76988        3.06829        1.68240
H          4.84664        3.52139       -0.02153
H          7.14493        2.53332       -0.18288
H          7.07001        2.07795        1.52093
H          6.91087        4.94400        0.44581
H          8.31618        4.19636        1.22539
H          6.83758        4.48676        2.15886
