 xtb: 6.5.1 (fef0646)
          01232320103D

 24 22  0     0  0            999 V2000
    1.2069   -0.3979    0.1852 N   0  0  0  0  0  0  0  0  0  0  0  0
    2.6617   -0.2966    0.0729 C   0  0  0  0  0  0  0  0  0  0  0  0
    3.1366    1.0430    0.6266 C   0  0  0  0  0  0  0  0  0  0  0  0
    4.6460    1.2151    0.4791 C   0  0  0  0  0  0  0  0  0  0  0  0
    5.1195    2.5595    1.0259 C   0  0  0  0  0  0  0  0  0  0  0  0
    6.6260    2.7476    0.8642 C   0  0  0  0  0  0  0  0  0  0  0  0
    7.0916    4.0899    1.4144 C   0  0  0  0  0  0  0  0  0  0  0  0
   -0.0951    1.7703   -1.2977 Cl  0  0  0  0  0  0  0  0  0  0  0  0
    0.8681   -1.2771   -0.1893 H   0  0  0  0  0  0  0  0  0  0  0  0
    0.5279    0.7608   -0.6062 H   0  0  0  0  0  0  0  0  0  0  0  0
    0.9163   -0.3212    1.1545 H   0  0  0  0  0  0  0  0  0  0  0  0
    2.9139   -0.3659   -0.9877 H   0  0  0  0  0  0  0  0  0  0  0  0
    3.1729   -1.1160    0.5991 H   0  0  0  0  0  0  0  0  0  0  0  0
    2.8644    1.1135    1.6825 H   0  0  0  0  0  0  0  0  0  0  0  0
    2.6205    1.8424    0.0947 H   0  0  0  0  0  0  0  0  0  0  0  0
    4.9152    1.1403   -0.5766 H   0  0  0  0  0  0  0  0  0  0  0  0
    5.1593    0.4082    1.0087 H   0  0  0  0  0  0  0  0  0  0  0  0
    4.8593    2.6320    2.0845 H   0  0  0  0  0  0  0  0  0  0  0  0
    4.5978    3.3631    0.5022 H   0  0  0  0  0  0  0  0  0  0  0  0
    6.8852    2.6802   -0.1946 H   0  0  0  0  0  0  0  0  0  0  0  0
    7.1487    1.9413    1.3841 H   0  0  0  0  0  0  0  0  0  0  0  0
    6.5931    4.9066    0.8973 H   0  0  0  0  0  0  0  0  0  0  0  0
    8.1650    4.2062    1.2851 H   0  0  0  0  0  0  0  0  0  0  0  0
    6.8632    4.1677    2.4750 H   0  0  0  0  0  0  0  0  0  0  0  0
  1  2  1  0  0  0  0
  2  3  1  0  0  0  0
  3  4  1  0  0  0  0
  4  5  1  0  0  0  0
  5  6  1  0  0  0  0
  6  7  1  0  0  0  0
  1  9  1  0  0  0  0
  8 10  1  0  0  0  0
  1 11  1  0  0  0  0
  2 12  1  0  0  0  0
  2 13  1  0  0  0  0
  3 14  1  0  0  0  0
  3 15  1  0  0  0  0
  4 16  1  0  0  0  0
  4 17  1  0  0  0  0
  5 18  1  0  0  0  0
  5 19  1  0  0  0  0
  6 20  1  0  0  0  0
  6 21  1  0  0  0  0
  7 22  1  0  0  0  0
  7 23  1  0  0  0  0
  7 24  1  0  0  0  0
M  END
