18
 xtb: 6.5.1 (fef0646)
N            0.54541750280989       -1.78074108484599       -0.32961078363508
C           -0.75587050453675       -1.37376477142502        0.28089563639431
C           -1.24898465366576       -0.04634371070612       -0.28341057217472
C           -2.53527429142963        0.45929654609372        0.37027722626877
C           -2.99003850615136        1.79678331545268       -0.19397025760737
Cl           2.74863487237054        0.42810552997021        0.08919387806215
H            1.22597109277386       -1.16306850915888       -0.21573389836873
H            0.34687401877701       -1.98722732945158       -1.36725017988084
H            0.79523096903200       -2.76392979569283        0.04229150184018
H           -0.65880411586265       -1.31343620337441        1.36834125405373
H           -1.58241624836333       -2.15022244519488        0.14650805467621
H           -1.40264416945677       -0.14681628472164       -1.36339057751095
H           -0.45929532499214        0.68288769521420       -0.16001916222456
H           -2.39266489848856        0.53953683375837        1.45574471803612
H           -3.33892599156623       -0.28593536147286        0.24849732912384
H           -2.22031148811818        2.56444460698081       -0.05131099125857
H           -3.90483440939705        2.16191492964604        0.27452963122463
H           -3.17402856257888        1.73207860535219       -1.27025509842380
