 xtb: 6.5.1 (fef0646)
          01232314243D

 43 46  0     0  0            999 V2000
    1.7630    1.4478   -0.6828 N   0  0  0  0  0  0  0  0  0  0  0  0
    2.2071    1.8607    0.6462 C   0  0  0  0  0  0  0  0  0  0  0  0
    3.4963    1.1049    0.9823 C   0  0  0  0  0  0  0  0  0  0  0  0
    4.5351    1.4370    0.0886 O   0  0  0  0  0  0  0  0  0  0  0  0
    5.2021    2.6195    0.2234 C   0  0  0  0  0  0  0  0  0  0  0  0
    5.0466    3.5148    1.2537 C   0  0  0  0  0  0  0  0  0  0  0  0
    5.8084    4.6814    1.2937 C   0  0  0  0  0  0  0  0  0  0  0  0
    6.7259    5.0061    0.3125 C   0  0  0  0  0  0  0  0  0  0  0  0
    6.8807    4.1132   -0.7829 C   0  0  0  0  0  0  0  0  0  0  0  0
    7.7741    4.4002   -1.8503 C   0  0  0  0  0  0  0  0  0  0  0  0
    7.9258    3.4668   -2.8622 C   0  0  0  0  0  0  0  0  0  0  0  0
    7.2057    2.2747   -2.8741 C   0  0  0  0  0  0  0  0  0  0  0  0
    6.3120    1.9990   -1.8757 C   0  0  0  0  0  0  0  0  0  0  0  0
    6.1335    2.9076   -0.8164 C   0  0  0  0  0  0  0  0  0  0  0  0
    7.5301    6.2191    0.3668 C   0  0  0  0  0  0  0  0  0  0  0  0
    7.4916    7.0842    1.4474 C   0  0  0  0  0  0  0  0  0  0  0  0
    8.2462    8.2563    1.4773 C   0  0  0  0  0  0  0  0  0  0  0  0
    9.0464    8.5885    0.4196 C   0  0  0  0  0  0  0  0  0  0  0  0
    9.1316    7.7384   -0.7003 C   0  0  0  0  0  0  0  0  0  0  0  0
    9.9512    8.0755   -1.7953 C   0  0  0  0  0  0  0  0  0  0  0  0
   10.0258    7.2479   -2.8806 C   0  0  0  0  0  0  0  0  0  0  0  0
    9.3100    6.0513   -2.9027 C   0  0  0  0  0  0  0  0  0  0  0  0
    8.5028    5.6638   -1.8465 C   0  0  0  0  0  0  0  0  0  0  0  0
    8.3830    6.5307   -0.7266 C   0  0  0  0  0  0  0  0  0  0  0  0
    1.0010   -1.3826   -0.5308 Cl  0  0  0  0  0  0  0  0  0  0  0  0
    0.9762    2.0009   -1.0038 H   0  0  0  0  0  0  0  0  0  0  0  0
    1.3524   -0.0644   -0.6266 H   0  0  0  0  0  0  0  0  0  0  0  0
    2.5292    1.5430   -1.3435 H   0  0  0  0  0  0  0  0  0  0  0  0
    1.4329    1.5951    1.3686 H   0  0  0  0  0  0  0  0  0  0  0  0
    2.3898    2.9429    0.7021 H   0  0  0  0  0  0  0  0  0  0  0  0
    3.3292    0.0358    0.8317 H   0  0  0  0  0  0  0  0  0  0  0  0
    3.7892    1.2777    2.0227 H   0  0  0  0  0  0  0  0  0  0  0  0
    4.3481    3.3358    2.0565 H   0  0  0  0  0  0  0  0  0  0  0  0
    5.6478    5.3390    2.1324 H   0  0  0  0  0  0  0  0  0  0  0  0
    8.6174    3.6431   -3.6699 H   0  0  0  0  0  0  0  0  0  0  0  0
    7.3557    1.5725   -3.6809 H   0  0  0  0  0  0  0  0  0  0  0  0
    5.7411    1.0842   -1.8745 H   0  0  0  0  0  0  0  0  0  0  0  0
    6.8717    6.8660    2.3020 H   0  0  0  0  0  0  0  0  0  0  0  0
    8.1865    8.9010    2.3422 H   0  0  0  0  0  0  0  0  0  0  0  0
    9.6252    9.5006    0.4264 H   0  0  0  0  0  0  0  0  0  0  0  0
   10.5117    8.9985   -1.7611 H   0  0  0  0  0  0  0  0  0  0  0  0
   10.6430    7.5095   -3.7280 H   0  0  0  0  0  0  0  0  0  0  0  0
    9.4017    5.4300   -3.7789 H   0  0  0  0  0  0  0  0  0  0  0  0
  1  2  1  0  0  0  0
  2  3  1  0  0  0  0
  3  4  1  0  0  0  0
  4  5  1  0  0  0  0
  5  6  4  0  0  0  0
  6  7  4  0  0  0  0
  7  8  4  0  0  0  0
  8  9  4  0  0  0  0
  9 10  4  0  0  0  0
 10 11  4  0  0  0  0
 11 12  4  0  0  0  0
 12 13  2  0  0  0  0
  5 14  4  0  0  0  0
  9 14  4  0  0  0  0
 13 14  4  0  0  0  0
  8 15  1  0  0  0  0
 15 16  4  0  0  0  0
 16 17  4  0  0  0  0
 17 18  2  0  0  0  0
 18 19  4  0  0  0  0
 19 20  4  0  0  0  0
 20 21  2  0  0  0  0
 21 22  4  0  0  0  0
 10 23  1  0  0  0  0
 22 23  4  0  0  0  0
 15 24  4  0  0  0  0
 19 24  4  0  0  0  0
 23 24  4  0  0  0  0
  1 26  1  0  0  0  0
 25 27  1  0  0  0  0
  1 28  1  0  0  0  0
  2 29  1  0  0  0  0
  2 30  1  0  0  0  0
  3 31  1  0  0  0  0
  3 32  1  0  0  0  0
  6 33  1  0  0  0  0
  7 34  1  0  0  0  0
 11 35  1  0  0  0  0
 12 36  1  0  0  0  0
 13 37  1  0  0  0  0
 16 38  1  0  0  0  0
 17 39  1  0  0  0  0
 18 40  1  0  0  0  0
 20 41  1  0  0  0  0
 21 42  1  0  0  0  0
 22 43  1  0  0  0  0
M  END
