37
 xtb: 6.5.1 (fef0646)
N            4.61532995935090        1.85077797921687        0.28459654221343
C            4.61968259930130        0.90525500270547       -0.85857813536462
C            3.48139068265900       -0.09903380109420       -0.73355850278006
O            2.21896716659264        0.55839832596009       -0.70214494095272
C            1.12446286156460       -0.28277879197000       -0.56331257897623
C           -0.16285069668668        0.31807162655134       -0.56640124950813
C           -0.31844328489203        1.72324381463379       -0.70420677266647
C           -1.54273645329065        2.30324056498854       -0.70763872019682
C           -1.31713322035975       -0.48757505844655       -0.43464130111910
C           -1.19805800729746       -1.89100487680394       -0.29969703289606
C            0.08333610657277       -2.45692926675367       -0.29792568842313
C            1.20439267325173       -1.67832388411704       -0.42509013724887
C           -2.38083988638363       -2.67630041118957       -0.17248399954364
C           -3.60824184646365       -2.10411153706589       -0.17876688984805
C           -3.76466983660535       -0.69051327166091       -0.31250024858531
C           -5.01761074867050       -0.07344167671923       -0.32282351149730
C           -5.12925545366121        1.29602979960870       -0.45379307745991
C           -4.00587550191035        2.08731528263882       -0.57849934533593
C           -2.72889435544662        1.52030314750783       -0.57575461962840
C           -2.60668816120651        0.11572512558603       -0.44032292836655
Cl           4.79485806338362       -0.41714169555079        3.36356511569428
H            5.37468146884527        2.50169112389863        0.32044936804001
H            4.72400871494816        1.26172029778969        1.23220837110722
H            3.71658694451685        2.29367251925994        0.41588789459646
H            5.58983778393409        0.37124042725130       -0.88320367963233
H            4.52101576259770        1.47295767377379       -1.73201094940700
H            3.57956911293977       -0.70153995749518        0.20294412321862
H            3.48599541568918       -0.80186351819908       -1.56658549092496
H            0.57456599352214        2.31704818780966       -0.79501363042952
H           -1.63028100970948        3.36929565057374       -0.79933472843979
H            0.16951871350891       -3.53199269033224       -0.20795043293131
H            2.16327589961175       -2.16460699687377       -0.42468394951078
H           -2.28972523268028       -3.74603031932388       -0.08465974228167
H           -4.49706932649755       -2.71080097197159       -0.09466446485040
H           -5.90261663736188       -0.67630787268209       -0.23438977632750
H           -6.10233554817969        1.75907687270285       -0.46011739448362
H           -4.09746088112131        3.15777576246243       -0.67436285368402
