 xtb: 6.5.1 (fef0646)
          01242317133D

 37 39  0     0  0            999 V2000
    4.6229    1.7828    0.3886 N   0  0  0  0  0  0  0  0  0  0  0  0
    4.6280    0.8819   -0.7915 C   0  0  0  0  0  0  0  0  0  0  0  0
    3.4819   -0.1167   -0.7072 C   0  0  0  0  0  0  0  0  0  0  0  0
    2.2224    0.5436   -0.6747 O   0  0  0  0  0  0  0  0  0  0  0  0
    1.1243   -0.2930   -0.5534 C   0  0  0  0  0  0  0  0  0  0  0  0
   -0.1615    0.3114   -0.5570 C   0  0  0  0  0  0  0  0  0  0  0  0
   -0.3128    1.7177   -0.6878 C   0  0  0  0  0  0  0  0  0  0  0  0
   -1.5356    2.3009   -0.6933 C   0  0  0  0  0  0  0  0  0  0  0  0
   -1.3185   -0.4918   -0.4339 C   0  0  0  0  0  0  0  0  0  0  0  0
   -1.2041   -1.8964   -0.3073 C   0  0  0  0  0  0  0  0  0  0  0  0
    0.0755   -2.4663   -0.3086 C   0  0  0  0  0  0  0  0  0  0  0  0
    1.1991   -1.6902   -0.4285 C   0  0  0  0  0  0  0  0  0  0  0  0
   -2.3892   -2.6789   -0.1862 C   0  0  0  0  0  0  0  0  0  0  0  0
   -3.6150   -2.1031   -0.1914 C   0  0  0  0  0  0  0  0  0  0  0  0
   -3.7670   -0.6885   -0.3185 C   0  0  0  0  0  0  0  0  0  0  0  0
   -5.0182   -0.0679   -0.3287 C   0  0  0  0  0  0  0  0  0  0  0  0
   -5.1257    1.3024   -0.4545 C   0  0  0  0  0  0  0  0  0  0  0  0
   -3.9999    2.0910   -0.5734 C   0  0  0  0  0  0  0  0  0  0  0  0
   -2.7244    1.5206   -0.5692 C   0  0  0  0  0  0  0  0  0  0  0  0
   -2.6064    0.1151   -0.4399 C   0  0  0  0  0  0  0  0  0  0  0  0
    4.7872   -0.3029    3.2016 Cl  0  0  0  0  0  0  0  0  0  0  0  0
    5.3785    2.4816    0.3567 H   0  0  0  0  0  0  0  0  0  0  0  0
    4.7229    1.2344    1.2563 H   0  0  0  0  0  0  0  0  0  0  0  0
    3.7199    2.2770    0.4469 H   0  0  0  0  0  0  0  0  0  0  0  0
    5.5911    0.3627   -0.8663 H   0  0  0  0  0  0  0  0  0  0  0  0
    4.5269    1.4747   -1.7074 H   0  0  0  0  0  0  0  0  0  0  0  0
    3.5755   -0.7121    0.2073 H   0  0  0  0  0  0  0  0  0  0  0  0
    3.4884   -0.8016   -1.5632 H   0  0  0  0  0  0  0  0  0  0  0  0
    0.5768    2.3148   -0.7884 H   0  0  0  0  0  0  0  0  0  0  0  0
   -1.6273    3.3688   -0.7939 H   0  0  0  0  0  0  0  0  0  0  0  0
    0.1662   -3.5350   -0.2138 H   0  0  0  0  0  0  0  0  0  0  0  0
    2.1612   -2.1690   -0.4272 H   0  0  0  0  0  0  0  0  0  0  0  0
   -2.2931   -3.7470   -0.0903 H   0  0  0  0  0  0  0  0  0  0  0  0
   -4.4996   -2.7099   -0.0996 H   0  0  0  0  0  0  0  0  0  0  0  0
   -5.9033   -0.6741   -0.2373 H   0  0  0  0  0  0  0  0  0  0  0  0
   -6.1009    1.7617   -0.4605 H   0  0  0  0  0  0  0  0  0  0  0  0
   -4.0948    3.1590   -0.6718 H   0  0  0  0  0  0  0  0  0  0  0  0
  1  2  1  0  0  0  0
  2  3  1  0  0  0  0
  3  4  1  0  0  0  0
  4  5  1  0  0  0  0
  5  6  4  0  0  0  0
  6  7  4  0  0  0  0
  7  8  2  0  0  0  0
  6  9  4  0  0  0  0
  9 10  4  0  0  0  0
 10 11  4  0  0  0  0
  5 12  4  0  0  0  0
 11 12  4  0  0  0  0
 10 13  4  0  0  0  0
 13 14  2  0  0  0  0
 14 15  1  0  0  0  0
 15 16  4  0  0  0  0
 16 17  4  0  0  0  0
 17 18  4  0  0  0  0
  8 19  4  0  0  0  0
 18 19  4  0  0  0  0
  9 20  4  0  0  0  0
 15 20  4  0  0  0  0
 19 20  4  0  0  0  0
  1 22  1  0  0  0  0
  1 23  1  0  0  0  0
  1 24  1  0  0  0  0
  2 25  1  0  0  0  0
  2 26  1  0  0  0  0
  3 27  1  0  0  0  0
  3 28  1  0  0  0  0
  7 29  1  0  0  0  0
  8 30  1  0  0  0  0
 11 31  1  0  0  0  0
 12 32  1  0  0  0  0
 13 33  1  0  0  0  0
 14 34  1  0  0  0  0
 16 35  1  0  0  0  0
 17 36  1  0  0  0  0
 18 37  1  0  0  0  0
M  END
