 xtb: 6.5.1 (fef0646)
          01242310123D

 37 39  0     0  0            999 V2000
   -3.6712    0.4444   -1.5658 N   0  0  0  0  0  0  0  0  0  0  0  0
   -4.1752    1.5402   -0.7047 C   0  0  0  0  0  0  0  0  0  0  0  0
   -3.4641    1.5836    0.6401 C   0  0  0  0  0  0  0  0  0  0  0  0
   -2.0634    1.8201    0.5002 O   0  0  0  0  0  0  0  0  0  0  0  0
   -1.2286    0.7154    0.4323 C   0  0  0  0  0  0  0  0  0  0  0  0
    0.1545    0.9832    0.2457 C   0  0  0  0  0  0  0  0  0  0  0  0
    0.6316    2.3142    0.1349 C   0  0  0  0  0  0  0  0  0  0  0  0
    1.9515    2.5823   -0.0418 C   0  0  0  0  0  0  0  0  0  0  0  0
    1.0794   -0.0831    0.1673 C   0  0  0  0  0  0  0  0  0  0  0  0
    0.6363   -1.4220    0.2723 C   0  0  0  0  0  0  0  0  0  0  0  0
   -0.7320   -1.6597    0.4535 C   0  0  0  0  0  0  0  0  0  0  0  0
   -1.6301   -0.6259    0.5320 C   0  0  0  0  0  0  0  0  0  0  0  0
    1.5902   -2.4735    0.1903 C   0  0  0  0  0  0  0  0  0  0  0  0
    2.9112   -2.2133    0.0152 C   0  0  0  0  0  0  0  0  0  0  0  0
    3.3918   -0.8760   -0.0939 C   0  0  0  0  0  0  0  0  0  0  0  0
    4.7453   -0.5791   -0.2732 C   0  0  0  0  0  0  0  0  0  0  0  0
    5.1740    0.7296   -0.3748 C   0  0  0  0  0  0  0  0  0  0  0  0
    4.2749    1.7747   -0.3019 C   0  0  0  0  0  0  0  0  0  0  0  0
    2.9100    1.5320   -0.1229 C   0  0  0  0  0  0  0  0  0  0  0  0
    2.4642    0.1920   -0.0174 C   0  0  0  0  0  0  0  0  0  0  0  0
   -4.4056   -2.5425    0.1265 Cl  0  0  0  0  0  0  0  0  0  0  0  0
   -2.6493    0.5223   -1.6796 H   0  0  0  0  0  0  0  0  0  0  0  0
   -4.0978    0.4550   -2.5071 H   0  0  0  0  0  0  0  0  0  0  0  0
   -3.8698   -0.4803   -1.1389 H   0  0  0  0  0  0  0  0  0  0  0  0
   -5.2586    1.4383   -0.5666 H   0  0  0  0  0  0  0  0  0  0  0  0
   -4.0234    2.4973   -1.2176 H   0  0  0  0  0  0  0  0  0  0  0  0
   -3.6348    0.6784    1.2285 H   0  0  0  0  0  0  0  0  0  0  0  0
   -3.8506    2.4083    1.2512 H   0  0  0  0  0  0  0  0  0  0  0  0
   -0.0871    3.1145    0.1968 H   0  0  0  0  0  0  0  0  0  0  0  0
    2.2923    3.6011   -0.1226 H   0  0  0  0  0  0  0  0  0  0  0  0
   -1.0753   -2.6784    0.5291 H   0  0  0  0  0  0  0  0  0  0  0  0
   -2.6700   -0.8633    0.6570 H   0  0  0  0  0  0  0  0  0  0  0  0
    1.2445   -3.4908    0.2711 H   0  0  0  0  0  0  0  0  0  0  0  0
    3.6202   -3.0224   -0.0438 H   0  0  0  0  0  0  0  0  0  0  0  0
    5.4551   -1.3877   -0.3311 H   0  0  0  0  0  0  0  0  0  0  0  0
    6.2234    0.9377   -0.5125 H   0  0  0  0  0  0  0  0  0  0  0  0
    4.6192    2.7925   -0.3821 H   0  0  0  0  0  0  0  0  0  0  0  0
  1  2  1  0  0  0  0
  2  3  1  0  0  0  0
  3  4  1  0  0  0  0
  4  5  1  0  0  0  0
  5  6  4  0  0  0  0
  6  7  4  0  0  0  0
  7  8  2  0  0  0  0
  6  9  4  0  0  0  0
  9 10  4  0  0  0  0
 10 11  4  0  0  0  0
  5 12  4  0  0  0  0
 11 12  4  0  0  0  0
 10 13  4  0  0  0  0
 13 14  2  0  0  0  0
 14 15  4  0  0  0  0
 15 16  4  0  0  0  0
 16 17  4  0  0  0  0
 17 18  4  0  0  0  0
  8 19  4  0  0  0  0
 18 19  4  0  0  0  0
  9 20  4  0  0  0  0
 15 20  4  0  0  0  0
 19 20  4  0  0  0  0
  1 22  1  0  0  0  0
  1 23  1  0  0  0  0
  1 24  1  0  0  0  0
  2 25  1  0  0  0  0
  2 26  1  0  0  0  0
  3 27  1  0  0  0  0
  3 28  1  0  0  0  0
  7 29  1  0  0  0  0
  8 30  1  0  0  0  0
 11 31  1  0  0  0  0
 12 32  1  0  0  0  0
 13 33  1  0  0  0  0
 14 34  1  0  0  0  0
 16 35  1  0  0  0  0
 17 36  1  0  0  0  0
 18 37  1  0  0  0  0
M  END
