18
0.995
N            0.36879  -1.84741  -0.23585
C           -0.92908  -1.14557  -0.43685
C           -1.23770  -0.17961   0.70051
C           -2.59315   0.51972   0.56207
C           -2.66736   1.45793  -0.63315
Cl           2.83779   0.58683   0.05390
H            1.14239  -1.16592  -0.15978
H            0.59147  -2.49110  -1.01287
H            0.36157  -2.40158   0.64035
H           -1.73731  -1.88088  -0.52981
H           -0.91028  -0.60902  -1.39275
H           -0.44107   0.57160   0.76415
H           -1.18992  -0.72615   1.65159
H           -2.81478   1.07961   1.48168
H           -3.38515  -0.23801   0.49300
H           -3.62609   1.98081  -0.68493
H           -2.54255   0.92022  -1.57529
H           -1.88286   2.21674  -0.58864
