  12

 N          0.0658185459        0.5573251197        0.4215561108
 C          0.9018728377       -0.6543527581        0.5796638072
 C          2.0828418480       -0.5898399224       -0.3714236470
 F          2.7373811905        0.5659882664       -0.2477920504
 Cl        -3.1803699257       -0.1537656126       -0.2963818972
 H         -0.7211839656        0.5890321955        1.0936761230
 H         -0.3247850435        0.6119224924       -0.5327939182
 H          0.6452268890        1.3978956504        0.5596253468
 H          0.3062578587       -1.5597967240        0.4126934491
 H          1.2675946868       -0.7101657714        1.6116605389
 H          1.7424890874       -0.6727558877       -1.4104301054
 H          2.7869796615       -1.4133461637       -0.2006047912
          12
        -19.99118980
 N          0.5347626425        1.2934542979       -0.5463573438
 C          1.4413192909        0.9545624337        0.5736966905
 C          1.6238824095       -0.5502275879        0.6470061281
 F          2.0018964884       -1.0461225442       -0.5328572529
 Cl        -2.5339808400       -0.2297438774        0.0375185034
 H          0.4128186285        2.3145880459       -0.6671607579
 H         -0.3977896100        0.8699078495       -0.4000046019
 H          0.9073983100        0.9041221759       -1.4244062359
 H          1.0530086588        1.3539532109        1.5183065858
 H          2.4139833799        1.4332008657        0.4108301752
 H          0.6827224698       -1.0366554871        0.9296147459
 H          2.3670832314       -0.8323976576        1.4029298072
