  12

 N          1.0980000000       -0.0528600000        0.3864100000
 C          2.5676500000       -0.0395500000        0.4122600000
 C          3.0695100000        1.0241200000        1.3718400000
 F          2.5930200000        0.7453100000        2.6163900000
 Cl        -0.1013500000        0.3609100000       -2.1289200000
 H          0.7399200000       -0.6045000000       -0.4306100000
 H          0.6953600000        0.8425400000        0.0475900000
 H          0.6063800000       -0.3439100000        1.2306500000
 H          2.9185800000        0.1484800000       -0.6058000000
 H          2.8777900000       -1.0397500000        0.7331300000
 H          2.7209900000        2.0221600000        1.0909100000
 H          4.1617200000        1.0262600000        1.4157700000
