 xtb: 6.5.1 (fef0646)
          01232314063D

 22 21  0     0  0            999 V2000
    1.0537    0.3079   -0.1069 N   0  0  0  0  0  0  0  0  0  0  0  0
    2.5083    0.3141   -0.0232 C   0  0  0  0  0  0  0  0  0  0  0  0
    3.1582    1.6048   -0.5522 C   0  0  0  0  0  0  0  0  0  0  0  0
    4.6527    1.5181   -0.4406 C   0  0  0  0  0  0  0  0  0  0  0  0
    5.3969    0.8890   -1.4313 C   0  0  0  0  0  0  0  0  0  0  0  0
    6.7694    0.7656   -1.3207 C   0  0  0  0  0  0  0  0  0  0  0  0
    7.4083    1.2767   -0.2025 C   0  0  0  0  0  0  0  0  0  0  0  0
    9.1249    1.1294   -0.0559 Cl  0  0  0  0  0  0  0  0  0  0  0  0
    6.6861    1.9062    0.7980 C   0  0  0  0  0  0  0  0  0  0  0  0
    5.3135    2.0202    0.6731 C   0  0  0  0  0  0  0  0  0  0  0  0
   -0.0092   -2.2874    0.8132 Cl  0  0  0  0  0  0  0  0  0  0  0  0
    0.4806   -1.0917    0.3998 H   0  0  0  0  0  0  0  0  0  0  0  0
    0.7464    0.4312   -1.0663 H   0  0  0  0  0  0  0  0  0  0  0  0
    0.6538    1.0514    0.4564 H   0  0  0  0  0  0  0  0  0  0  0  0
    2.8787   -0.5407   -0.5930 H   0  0  0  0  0  0  0  0  0  0  0  0
    2.7843    0.1675    1.0231 H   0  0  0  0  0  0  0  0  0  0  0  0
    2.7889    2.4560    0.0246 H   0  0  0  0  0  0  0  0  0  0  0  0
    2.8707    1.7456   -1.5972 H   0  0  0  0  0  0  0  0  0  0  0  0
    4.8990    0.4929   -2.3041 H   0  0  0  0  0  0  0  0  0  0  0  0
    7.3414    0.2778   -2.0941 H   0  0  0  0  0  0  0  0  0  0  0  0
    7.1937    2.3022    1.6633 H   0  0  0  0  0  0  0  0  0  0  0  0
    4.7512    2.5122    1.4532 H   0  0  0  0  0  0  0  0  0  0  0  0
  1  2  1  0  0  0  0
  2  3  1  0  0  0  0
  3  4  1  0  0  0  0
  4  5  4  0  0  0  0
  5  6  4  0  0  0  0
  6  7  4  0  0  0  0
  7  8  1  0  0  0  0
  7  9  4  0  0  0  0
  4 10  4  0  0  0  0
  9 10  4  0  0  0  0
 11 12  1  0  0  0  0
  1 13  1  0  0  0  0
  1 14  1  0  0  0  0
  2 15  1  0  0  0  0
  2 16  1  0  0  0  0
  3 17  1  0  0  0  0
  3 18  1  0  0  0  0
  5 19  1  0  0  0  0
  6 20  1  0  0  0  0
  9 21  1  0  0  0  0
 10 22  1  0  0  0  0
M  END
