25
1.6
N           -1.12019   0.68770  -0.09392
C           -0.65150  -0.68109   0.24886
C            0.87232  -0.85070   0.14563
C            1.64052   0.06241   1.12968
C            3.15502  -0.20036   1.06110
C            3.68376  -0.00908  -0.37170
C            2.91403  -0.89095  -1.37155
C            1.40047  -0.62483  -1.29033
Cl          -4.58659   0.91133   0.22612
H           -0.70307   1.39660   0.52907
H           -2.15070   0.77333  -0.01058
H           -0.86842   0.94222  -1.06345
H           -1.14544  -1.40664  -0.40848
H           -0.97867  -0.93037   1.26536
H            1.12098  -1.89121   0.41646
H            1.25632  -0.06629   2.15010
H            1.44455   1.10874   0.87112
H            3.36088  -1.22674   1.39049
H            3.69517   0.44637   1.76695
H            4.76214  -0.21599  -0.41975
H            3.57650   1.04443  -0.66014
H            3.10946  -1.94772  -1.14942
H            3.28281  -0.73498  -2.39511
H            0.84450  -1.24654  -2.00453
H            1.20062   0.41133  -1.58412
