21
 xtb: 6.5.1 (fef0646)
N           -1.34811440566397       -1.92017559735405        0.38588128727067
C            0.12350410470074       -1.66629292719312        0.47454388208039
C            0.67609596067720       -0.96334881507257       -0.76013857835916
C            2.20056074055597       -0.81365679224958       -0.73711988658097
C            2.72998978662086        0.06507996012317        0.40092343009601
C            2.24946113593502        1.50697306877540        0.32207226302795
Cl          -2.60243640696061        1.68025726805862       -0.08301593714311
H           -1.64248083004773       -2.38065999947600       -0.44145150344458
H           -1.83581982024432       -0.89189124522471        0.26216332451180
H           -1.77781024507502       -2.25172215250742        1.21642093217525
H            0.57359570106589       -2.61588637550743        0.60537740871493
H            0.34403473667576       -1.06243962008566        1.36524479685489
H            0.21268010144887        0.03209663154131       -0.88739092632543
H            0.36999593651585       -1.51527189842473       -1.65910504631276
H            2.55463810553639       -0.41069257259001       -1.68942327414830
H            2.64565913886718       -1.81675298707455       -0.66290739998812
H            3.82703993099459        0.04563907272313        0.40210415023883
H            2.44385621403703       -0.36768847802916        1.36981699485918
H            2.68089614966383        2.12958173995037        1.10775246244058
H            1.16378158383599        1.57720905236248        0.41609695195293
H            2.51711758436016        1.95903706402224       -0.63684390270868
