 xtb: 6.5.1 (fef0646)
          01242317103D

 21 19  0     0  0            999 V2000
   -1.3970   -1.7641    0.3721 N   0  0  0  0  0  0  0  0  0  0  0  0
    0.0863   -1.6266    0.4626 C   0  0  0  0  0  0  0  0  0  0  0  0
    0.6749   -0.9501   -0.7699 C   0  0  0  0  0  0  0  0  0  0  0  0
    2.2001   -0.8170   -0.7313 C   0  0  0  0  0  0  0  0  0  0  0  0
    2.7276    0.0667    0.4039 C   0  0  0  0  0  0  0  0  0  0  0  0
    2.2481    1.5086    0.3195 C   0  0  0  0  0  0  0  0  0  0  0  0
   -2.5353    1.5235   -0.0613 Cl  0  0  0  0  0  0  0  0  0  0  0  0
   -1.6668   -2.3329   -0.4452 H   0  0  0  0  0  0  0  0  0  0  0  0
   -1.8324   -0.8361    0.2581 H   0  0  0  0  0  0  0  0  0  0  0  0
   -1.7997   -2.2024    1.2120 H   0  0  0  0  0  0  0  0  0  0  0  0
    0.5450   -2.6129    0.5999 H   0  0  0  0  0  0  0  0  0  0  0  0
    0.3446   -1.0571    1.3626 H   0  0  0  0  0  0  0  0  0  0  0  0
    0.2166    0.0373   -0.8949 H   0  0  0  0  0  0  0  0  0  0  0  0
    0.3705   -1.5127   -1.6614 H   0  0  0  0  0  0  0  0  0  0  0  0
    2.5584   -0.4154   -1.6879 H   0  0  0  0  0  0  0  0  0  0  0  0
    2.6425   -1.8187   -0.6572 H   0  0  0  0  0  0  0  0  0  0  0  0
    3.8263    0.0458    0.4038 H   0  0  0  0  0  0  0  0  0  0  0  0
    2.4422   -0.3661    1.3709 H   0  0  0  0  0  0  0  0  0  0  0  0
    2.6813    2.1310    1.1059 H   0  0  0  0  0  0  0  0  0  0  0  0
    1.1635    1.5779    0.4162 H   0  0  0  0  0  0  0  0  0  0  0  0
    2.5161    1.9583   -0.6384 H   0  0  0  0  0  0  0  0  0  0  0  0
  1  2  1  0  0  0  0
  2  3  1  0  0  0  0
  3  4  1  0  0  0  0
  4  5  1  0  0  0  0
  5  6  1  0  0  0  0
  1  8  1  0  0  0  0
  1  9  1  0  0  0  0
  1 10  1  0  0  0  0
  2 11  1  0  0  0  0
  2 12  1  0  0  0  0
  3 13  1  0  0  0  0
  3 14  1  0  0  0  0
  4 15  1  0  0  0  0
  4 16  1  0  0  0  0
  5 17  1  0  0  0  0
  5 18  1  0  0  0  0
  6 19  1  0  0  0  0
  6 20  1  0  0  0  0
  6 21  1  0  0  0  0
M  END
