21

N          3.19968       -0.82128        1.08941
C          2.44933       -0.10385        0.02414
C          0.96360       -0.41393        0.17834
C          2.99509       -0.45393       -1.33803
C          3.57870        0.54678       -2.13219
C          4.10612        0.24071       -3.38778
C          4.06352       -1.06663       -3.86409
C          3.48753       -2.06990       -3.09029
C          2.95350       -1.76826       -1.83631
H          4.20525       -0.63078        0.99453
H          3.07857       -1.83776        1.01453
H          2.90714       -0.52880        2.02863
H          2.60889        0.95990        0.23272
H          0.74610       -1.47994        0.04933
H          0.37663        0.13636       -0.56567
H          0.60447       -0.11928        1.17065
H          3.62264        1.58265       -1.79768
H          4.54648        1.02371       -4.00289
H          4.47161       -1.30173       -4.84541
H          3.44740       -3.08794       -3.47412
H          2.49623       -2.57937       -1.27357
