 xtb: 6.5.1 (fef0646)
          01242316563D

 21 21  0     0  0            999 V2000
    3.2039   -0.8605    1.0940 N   0  0  0  0  0  0  0  0  0  0  0  0
    2.4793   -0.0920    0.0358 C   0  0  0  0  0  0  0  0  0  0  0  0
    0.9893   -0.3951    0.1374 C   0  0  0  0  0  0  0  0  0  0  0  0
    3.0310   -0.4435   -1.3265 C   0  0  0  0  0  0  0  0  0  0  0  0
    3.5682    0.5492   -2.1353 C   0  0  0  0  0  0  0  0  0  0  0  0
    4.0574    0.2416   -3.3932 C   0  0  0  0  0  0  0  0  0  0  0  0
    4.0175   -1.0640   -3.8528 C   0  0  0  0  0  0  0  0  0  0  0  0
    3.4840   -2.0598   -3.0512 C   0  0  0  0  0  0  0  0  0  0  0  0
    2.9927   -1.7524   -1.7953 C   0  0  0  0  0  0  0  0  0  0  0  0
    4.2071   -0.6431    1.0814 H   0  0  0  0  0  0  0  0  0  0  0  0
    3.0882   -1.8684    0.9339 H   0  0  0  0  0  0  0  0  0  0  0  0
    2.8231   -0.6331    2.0204 H   0  0  0  0  0  0  0  0  0  0  0  0
    2.6453    0.9723    0.2182 H   0  0  0  0  0  0  0  0  0  0  0  0
    0.7903   -1.4523   -0.0103 H   0  0  0  0  0  0  0  0  0  0  0  0
    0.4521    0.1510   -0.6320 H   0  0  0  0  0  0  0  0  0  0  0  0
    0.5944   -0.0879    1.1015 H   0  0  0  0  0  0  0  0  0  0  0  0
    3.6012    1.5713   -1.7893 H   0  0  0  0  0  0  0  0  0  0  0  0
    4.4702    1.0204   -4.0165 H   0  0  0  0  0  0  0  0  0  0  0  0
    4.3979   -1.3041   -4.8344 H   0  0  0  0  0  0  0  0  0  0  0  0
    3.4488   -3.0771   -3.4108 H   0  0  0  0  0  0  0  0  0  0  0  0
    2.5666   -2.5457   -1.2006 H   0  0  0  0  0  0  0  0  0  0  0  0
  1  2  1  0  0  0  0
  2  3  1  0  0  0  0
  2  4  1  0  0  0  0
  4  5  4  0  0  0  0
  5  6  4  0  0  0  0
  6  7  4  0  0  0  0
  7  8  4  0  0  0  0
  4  9  4  0  0  0  0
  8  9  4  0  0  0  0
  1 10  1  0  0  0  0
  1 11  1  0  0  0  0
  1 12  1  0  0  0  0
  2 13  1  0  0  0  0
  3 14  1  0  0  0  0
  3 15  1  0  0  0  0
  3 16  1  0  0  0  0
  5 17  1  0  0  0  0
  6 18  1  0  0  0  0
  7 19  1  0  0  0  0
  8 20  1  0  0  0  0
  9 21  1  0  0  0  0
M  CHG  1   1   1
M  END
