16
 xtb: 6.5.1 (fef0646)
N            0.21306267353199       -1.61282110764016        0.00082192118141
C            1.42881954429382       -0.74861854698998        0.00495903452256
C            1.39683089310761        0.36087392664783        1.08673678974018
C            1.75639101788572        1.39973250084384       -0.00178531628444
C            1.41089224065016        0.35232058089291       -1.08624171458254
Cl          -2.37117526345293        0.17980231508526       -0.00168451083685
H            0.30589436351728       -2.27791070088446        0.83789422025432
H            0.31290556539585       -2.28008072778563       -0.83530697468157
H           -0.58131845876448       -1.13219851042265       -0.00310536344071
H            2.43780913464572       -1.29296165959282        0.01332584905722
H            2.15159570946740        0.25604120863424        1.88727436990122
H            0.39848816458739        0.46353421232588        1.50714710250379
H            2.80707891820503        1.70224288446369        0.00403964779274
H            1.09809950106449        2.28144398279593       -0.00966567159403
H            2.17666971823419        0.24152885231225       -1.87615894566646
H            0.41875228447345        0.45176071514173       -1.52092618963081
