28
2.138
N           -2.48433  -0.28475   0.38820
C           -1.85424   0.77214  -0.44697
C           -0.32116   0.68671  -0.49010
C            0.18367  -0.63216  -1.11882
C            1.71730  -0.64087  -1.22783
C            2.38460  -0.41422   0.14295
C            3.88683  -0.35687  -0.00466
O            4.60461  -1.29905   0.64789
O            4.38467   0.51213  -0.68758
C            1.85890   0.87557   0.80398
C            0.32468   0.87620   0.90194
Cl          -5.94851   0.04911   0.37641
H           -2.16597  -0.23252   1.36868
H           -2.25723  -1.22803   0.03917
H           -3.51951  -0.20042   0.39611
H           -2.15505   1.75632  -0.06879
H           -2.25255   0.71013  -1.46632
H            0.05085   1.50609  -1.12769
H           -0.28720  -0.79477  -2.09620
H           -0.13694  -1.47147  -0.49251
H            2.05029   0.15178  -1.90735
H            2.08041  -1.57605  -1.67254
H            2.14805  -1.26708   0.79605
H            5.54595  -1.12555   0.45266
H            2.19780   1.73005   0.20763
H            2.32174   1.00779   1.79010
H           -0.04516   1.79551   1.37312
H            0.00588   0.05877   1.55732
