28
1.375
N           -2.69141  -1.02934  -0.12517
C           -1.20179  -1.11196  -0.12248
C           -0.56591   0.11421  -0.76241
C            0.97650   0.11020  -0.77128
C            1.57212  -1.06337  -1.58395
C            3.10619  -0.96490  -1.65354
C            3.72097  -0.92178  -0.24271
C            3.12064   0.22363   0.59204
C            1.58736   0.11831   0.65045
Cl          -3.55315   1.87847   1.57951
H           -3.05838  -0.96093  -1.09006
H           -3.00962  -0.18576   0.38416
H           -3.13185  -1.85221   0.32155
H           -0.88544  -2.01932  -0.64585
H           -0.84600  -1.22707   0.90863
H           -0.92292   1.01182  -0.24250
H           -0.93561   0.21074  -1.79033
H            1.31500   1.03799  -1.26394
H            1.12588  -1.09972  -2.58647
H            1.29353  -2.00782  -1.10306
H            3.38755  -0.05606  -2.20061
H            3.52400  -1.79752  -2.23681
H            4.81477  -0.83174  -0.29739
H            3.53270  -1.87691   0.26405
H            3.40203   1.18549   0.14470
H            3.54929   0.23627   1.60405
H            1.15124   0.92849   1.24938
H            1.30977  -0.80935   1.16345
