28
 xtb: 6.5.1 (fef0646)
N           -2.66511315087186       -1.15885177901640       -0.20639863119392
C           -1.17232572409602       -1.15783160743967       -0.14174600227093
C           -0.56485974819523        0.09104572461020       -0.76530752229016
C            0.97793733873926        0.10366933406684       -0.77368667044121
C            1.58246421523075       -1.06278141384933       -1.59061980277073
C            3.11596253365515       -0.95722378805403       -1.65634531600711
C            3.72604348029730       -0.91761305017595       -0.24345357675914
C            3.11960165582373        0.22326362335402        0.59307095454347
C            1.58666507094907        0.11145353890057        0.64895446856702
Cl          -3.61160721167662        2.02671187058095        1.66583727561375
H           -3.04256705551430       -1.00038224304100       -1.11585346455760
H           -3.01623050492762       -0.22938766020789        0.35637372381154
H           -3.11856086846716       -1.89272740343461        0.29596055362143
H           -0.86039767108362       -2.02918817009251       -0.64725479494575
H           -0.84676373148844       -1.23483976851052        0.90675396386961
H           -0.92630764046259        1.00199347902420       -0.24052442680735
H           -0.93540051145008        0.20555542257475       -1.79100419156624
H            1.31313173819723        1.03744847660087       -1.26346854755362
H            1.12951745683594       -1.09918131878645       -2.58873047522432
H            1.29865325320356       -2.00902634270760       -1.10643703522916
H            3.38978856439581       -0.05292254711270       -2.20012562956753
H            3.52812156070644       -1.79418034311513       -2.23829745922062
H            4.81618579552420       -0.82951145405512       -0.29656957477033
H            3.53460527934080       -1.87641730052087        0.26267719188267
H            3.40078956686373        1.18599243168090        0.14581279162333
H            3.54834505323261        0.23596877238761        1.60457862548181
H            1.14975036282010        0.92555638399136        1.24917452943197
H            1.31055538829069       -0.81204197288553        1.16232813862805
