22
 xtb: 6.5.1 (fef0646)
N            1.94669059743456       -1.07765437044486       -1.32097337286743
C            1.62290508403212       -2.14794144142929       -0.32870353232122
C            0.93806961082382       -1.57566004698246        0.91295992078573
C           -0.30837827484459       -0.81007558298029        0.58521672979904
C           -0.24956066668856        0.54732377228008        0.30144060407432
C           -1.38688844998967        1.24700405987352       -0.04268482581349
C           -2.60930843568707        0.60439122526130       -0.11350116031752
F           -3.72892297061165        1.29213312989331       -0.45345084192167
C           -2.67413765926373       -0.74906678874891        0.16127464341499
C           -1.53532751075783       -1.45113686581869        0.50132353714037
Cl           3.13932429607661        1.48198941902528        0.11453394313658
H            2.45527123758897       -1.55117813313020       -2.14805227985718
H            2.40317860997795       -0.35990433111530       -0.95940990022534
H            1.01794869398331       -0.79672972396259       -1.77289227631096
H            2.52267949959697       -2.70880728684722       -0.04584599426180
H            0.94049003054988       -2.96211559150539       -0.74747218615308
H            1.65664414090521       -0.89614747802351        1.39604289802361
H            0.71461654512666       -2.34241922609822        1.65232580938378
H            0.70569064487066        1.05514828580178        0.34370213853735
H           -1.34527299864054        2.30313897595943       -0.25329271540911
H           -3.62212306818853       -1.24622410845618        0.08784926302516
H           -1.58212568877827       -2.50949451386234        0.69090672472159
