22
 xtb: 6.5.1 (fef0646)
N           -1.81936248966316       -1.36826692613382       -1.45885896174328
C           -1.55751460818343       -2.27550899085028       -0.30397931612731
C           -0.96879722592704       -1.54067327149207        0.90014684145500
C            0.28714318799404       -0.79261556390507        0.56585817252190
C            1.50769824611936       -1.44733702746410        0.49641270104318
C            2.65532270310462       -0.76143248206574        0.15836062346808
C            2.60769681923357        0.59308791318542       -0.11928176903204
F            3.73960747248092        1.26965468377994       -0.45039106895582
C            1.39088276767636        1.24790610578977       -0.05924333183721
C            0.24212627291311        0.56224785298943        0.27507742769893
Cl          -3.23239401347708        1.76677461807799        0.25162251467317
H           -2.39184837957657       -1.71783831834021       -2.18671866359297
H           -1.00417495037568       -0.88253020836976       -1.79117543001968
H           -2.43603213949351       -0.48954200922146       -1.05888474267723
H           -0.90785829032418       -3.01566376871090       -0.67846840201468
H           -2.50488292260080       -2.75386234866742       -0.01713248316651
H           -0.74390428875379       -2.27694750555854        1.69367587955537
H           -1.68337966916797       -0.85087544432143        1.34421240999606
H            1.56211688571411       -2.50001885512008        0.72113378285909
H            3.61170265434720       -1.25961115569653        0.11895633484163
H            1.35601054830821        2.29626618653553       -0.29297848467679
H           -0.70421494362862        1.06668473523871        0.30013750770099
