 xtb: 6.5.1 (fef0646)
          02032320133D

 22 21  0     0  0            999 V2000
   -1.8967   -1.2440   -1.3940 N   0  0  0  0  0  0  0  0  0  0  0  0
   -1.5932   -2.2195   -0.3085 C   0  0  0  0  0  0  0  0  0  0  0  0
   -0.9573   -1.5493    0.9074 C   0  0  0  0  0  0  0  0  0  0  0  0
    0.2951   -0.7969    0.5714 C   0  0  0  0  0  0  0  0  0  0  0  0
    1.5186   -1.4457    0.5093 C   0  0  0  0  0  0  0  0  0  0  0  0
    2.6641   -0.7559    0.1713 C   0  0  0  0  0  0  0  0  0  0  0  0
    2.6110    0.5954   -0.1181 C   0  0  0  0  0  0  0  0  0  0  0  0
    3.7420    1.2757   -0.4507 F   0  0  0  0  0  0  0  0  0  0  0  0
    1.3910    1.2448   -0.0666 C   0  0  0  0  0  0  0  0  0  0  0  0
    0.2459    0.5557    0.2715 C   0  0  0  0  0  0  0  0  0  0  0  0
   -3.1798    1.6372    0.1866 Cl  0  0  0  0  0  0  0  0  0  0  0  0
   -2.4492   -1.6632   -2.1540 H   0  0  0  0  0  0  0  0  0  0  0  0
   -1.0295   -0.8699   -1.8015 H   0  0  0  0  0  0  0  0  0  0  0  0
   -2.4234   -0.4393   -1.0153 H   0  0  0  0  0  0  0  0  0  0  0  0
   -0.9244   -2.9961   -0.6973 H   0  0  0  0  0  0  0  0  0  0  0  0
   -2.5130   -2.7395   -0.0147 H   0  0  0  0  0  0  0  0  0  0  0  0
   -0.7360   -2.2900    1.6843 H   0  0  0  0  0  0  0  0  0  0  0  0
   -1.6748   -0.8577    1.3610 H   0  0  0  0  0  0  0  0  0  0  0  0
    1.5667   -2.4990    0.7271 H   0  0  0  0  0  0  0  0  0  0  0  0
    3.6152   -1.2565    0.1253 H   0  0  0  0  0  0  0  0  0  0  0  0
    1.3545    2.2947   -0.2980 H   0  0  0  0  0  0  0  0  0  0  0  0
   -0.7036    1.0636    0.2973 H   0  0  0  0  0  0  0  0  0  0  0  0
  1  2  1  0  0  0  0
  2  3  1  0  0  0  0
  3  4  1  0  0  0  0
  4  5  4  0  0  0  0
  5  6  4  0  0  0  0
  6  7  4  0  0  0  0
  7  8  1  0  0  0  0
  7  9  4  0  0  0  0
  4 10  4  0  0  0  0
  9 10  4  0  0  0  0
  1 12  1  0  0  0  0
  1 13  1  0  0  0  0
  1 14  1  0  0  0  0
  2 15  1  0  0  0  0
  2 16  1  0  0  0  0
  3 17  1  0  0  0  0
  3 18  1  0  0  0  0
  5 19  1  0  0  0  0
  6 20  1  0  0  0  0
  9 21  1  0  0  0  0
 10 22  1  0  0  0  0
M  END
