28
 xtb: 6.5.1 (fef0646)
N           -1.44027035416802       -1.46975557321105       -1.12583071942507
C           -1.08428423348708       -2.12889851832359        0.16439454348049
C           -0.55333711965622       -1.17676608654324        1.23765964828837
C            0.76133329481434       -0.43410299434936        0.90657257529916
C            0.56690557578902        0.80873336926643        0.00469037098848
C            1.89010713152478        1.57706295308734       -0.16239960846453
C            2.98979149255076        0.66201235864071       -0.73428183669625
C            3.18074533550073       -0.59419782200772        0.13625541585329
C            1.85295554662464       -1.35320399996687        0.31105442215675
Cl          -3.10510193351445        1.79973672029736       -0.15353518442596
H           -2.07003994210009       -1.98060634028296       -1.70653436793609
H           -0.64926441722448       -1.12755518843136       -1.64668281616402
H           -2.00868881780866       -0.52625134781786       -0.89605625993999
H           -0.39593834496466       -2.88618223366851       -0.04977880385134
H           -1.99838858675619       -2.60000850386443        0.55936772519074
H           -0.40174789881200       -1.74783898254312        2.16643017392062
H           -1.30925407458675       -0.41378604079714        1.51232078130052
H            1.19230698285365       -0.06156620264996        1.86575445151423
H           -0.19504954372631        1.47957370713842        0.46024513716277
H            0.20514850897254        0.53627725442643       -0.95012690142663
H            2.24797817042381        1.95435032761633        0.83445971787757
H            1.77135171411735        2.47787532918729       -0.76176119373427
H            3.94185429066172        1.19981897869339       -0.84807207415536
H            2.69884393811653        0.37628800224431       -1.75691557778124
H            3.57333456492820       -0.33079266491300        1.09667652599267
H            3.93262275799182       -1.26818569637749       -0.33217310585832
H            1.96598146147997       -2.25620857948378        0.90279871347356
H            1.48865876142966       -1.70234884941203       -0.68338875256919
