 xtb: 6.5.1 (fef0646)
          02032320243D

 28 27  0     0  0            999 V2000
   -1.4997   -1.3603   -1.0893 N   0  0  0  0  0  0  0  0  0  0  0  0
   -1.1220   -2.0666    0.1703 C   0  0  0  0  0  0  0  0  0  0  0  0
   -0.5505   -1.1543    1.2560 C   0  0  0  0  0  0  0  0  0  0  0  0
    0.7714   -0.4280    0.9184 C   0  0  0  0  0  0  0  0  0  0  0  0
    0.5845    0.8366    0.0467 C   0  0  0  0  0  0  0  0  0  0  0  0
    1.9177    1.5843   -0.1315 C   0  0  0  0  0  0  0  0  0  0  0  0
    2.9900    0.6621   -0.7403 C   0  0  0  0  0  0  0  0  0  0  0  0
    3.1735   -0.6131    0.1029 C   0  0  0  0  0  0  0  0  0  0  0  0
    1.8359   -1.3525    0.2855 C   0  0  0  0  0  0  0  0  0  0  0  0
   -3.0561    1.6433   -0.2109 Cl  0  0  0  0  0  0  0  0  0  0  0  0
   -2.0928   -1.9438   -1.6970 H   0  0  0  0  0  0  0  0  0  0  0  0
   -0.6679   -1.0980   -1.6405 H   0  0  0  0  0  0  0  0  0  0  0  0
   -2.0202   -0.4948   -0.8772 H   0  0  0  0  0  0  0  0  0  0  0  0
   -0.4125   -2.8701   -0.0588 H   0  0  0  0  0  0  0  0  0  0  0  0
   -2.0094   -2.5803    0.5632 H   0  0  0  0  0  0  0  0  0  0  0  0
   -0.3991   -1.7491    2.1664 H   0  0  0  0  0  0  0  0  0  0  0  0
   -1.3030   -0.4054    1.5272 H   0  0  0  0  0  0  0  0  0  0  0  0
    1.2017   -0.0680    1.8694 H   0  0  0  0  0  0  0  0  0  0  0  0
   -0.1837    1.4891    0.4812 H   0  0  0  0  0  0  0  0  0  0  0  0
    0.2022    0.5524   -0.9371 H   0  0  0  0  0  0  0  0  0  0  0  0
    2.2631    1.9493    0.8436 H   0  0  0  0  0  0  0  0  0  0  0  0
    1.7806    2.4840   -0.7472 H   0  0  0  0  0  0  0  0  0  0  0  0
    3.9441    1.1956   -0.8519 H   0  0  0  0  0  0  0  0  0  0  0  0
    2.6921    0.3834   -1.7586 H   0  0  0  0  0  0  0  0  0  0  0  0
    3.5773   -0.3437    1.0866 H   0  0  0  0  0  0  0  0  0  0  0  0
    3.9250   -1.2749   -0.3491 H   0  0  0  0  0  0  0  0  0  0  0  0
    1.9594   -2.2603    0.8892 H   0  0  0  0  0  0  0  0  0  0  0  0
    1.4768   -1.6944   -0.6910 H   0  0  0  0  0  0  0  0  0  0  0  0
  1  2  1  0  0  0  0
  2  3  1  0  0  0  0
  3  4  1  0  0  0  0
  4  5  1  0  0  0  0
  5  6  1  0  0  0  0
  6  7  1  0  0  0  0
  7  8  1  0  0  0  0
  4  9  1  0  0  0  0
  8  9  1  0  0  0  0
  1 11  1  0  0  0  0
  1 12  1  0  0  0  0
  1 13  1  0  0  0  0
  2 14  1  0  0  0  0
  2 15  1  0  0  0  0
  3 16  1  0  0  0  0
  3 17  1  0  0  0  0
  4 18  1  0  0  0  0
  5 19  1  0  0  0  0
  5 20  1  0  0  0  0
  6 21  1  0  0  0  0
  6 22  1  0  0  0  0
  7 23  1  0  0  0  0
  7 24  1  0  0  0  0
  8 25  1  0  0  0  0
  8 26  1  0  0  0  0
  9 27  1  0  0  0  0
  9 28  1  0  0  0  0
M  END
