28
0.416
N            2.70507   1.24228  -1.11271
C            1.72005   1.74567  -0.10897
C            2.36143   1.86770   1.26872
C            0.48366   0.87787  -0.06834
C            0.59399  -0.51897   0.05448
C           -0.51530  -1.31269   0.11121
C           -0.76446   1.44424  -0.12162
C           -1.93347   0.65507  -0.06433
C           -1.80801  -0.74865   0.05268
C           -2.97824  -1.53834   0.11093
C           -4.21243  -0.95717   0.05693
C           -4.33697   0.43281  -0.05729
C           -3.22631   1.22365  -0.11701
Cl           3.84001  -1.84717   0.04780
H            3.07689   0.32278  -0.82021
H            3.50803   1.88370  -1.21319
H            2.26652   1.12336  -2.04045
H            1.40466   2.74984  -0.43720
H            1.65939   2.27256   2.00049
H            3.23959   2.51565   1.24452
H            2.68340   0.88995   1.62829
H            1.57343  -0.96317   0.10522
H           -0.41585  -2.38215   0.20345
H           -0.86123   2.51322  -0.20495
H           -2.88234  -2.60807   0.19948
H           -5.09893  -1.56983   0.10289
H           -5.31844   0.87842  -0.09767
H           -3.32264   2.29357  -0.20443
