23

N          1.24956        0.51261        0.02859
C          2.63851        0.07964        0.15337
C          3.17201       -0.49122       -1.12885
C          3.78631        0.32434       -2.08720
C          4.19726       -0.20987       -3.31543
C          4.00492       -1.56563       -3.61232
C          4.33985       -2.15627       -4.91299
C          5.34254       -1.75995       -5.71128
C          3.38280       -2.37490       -2.65395
C          2.97629       -1.84628       -1.42457
Cl        -0.81589       -1.34060       -0.73548
H          0.78798        0.79560        0.89410
H          0.64249       -0.30253       -0.28283
H          1.06852        1.18974       -0.71391
H          2.68179       -0.65637        0.96356
H          3.22001        0.95344        0.46667
H          3.93719        1.38654       -1.90611
H          4.64359        0.45373       -4.05268
H          3.71875       -2.98714       -5.23128
H          6.01675       -0.95328       -5.45069
H          5.51257       -2.26375       -6.65781
H          3.18817       -3.42477       -2.85777
H          2.46472       -2.50452       -0.72220
