28

N          1.07712       -0.29792       -0.12908
C          2.48985       -0.25399        0.24298
C          2.81995        0.89927        1.20167
C          2.02958        0.81726        2.51574
C          2.40222        1.95082        3.46849
C          2.21992        3.33310        2.82143
C          2.62897        4.42758        3.79859
O          2.41247        5.67575        3.33430
O          3.07637        4.22495        4.91821
C          3.02138        3.41314        1.51716
C          2.64817        2.28229        0.55589
Cl         0.00630        1.09336       -2.36070
H          0.86796       -1.00891       -0.84410
H          0.78943        0.53712       -0.71556
H          0.37527       -0.37137        0.60787
H          3.06322       -0.17207       -0.68569
H          2.71766       -1.21925        0.70649
H          3.88520        0.79190        1.45232
H          2.22397       -0.14407        3.00590
H          0.95179        0.86680        2.32219
H          3.44493        1.82242        3.78885
H          1.78871        1.87645        4.37469
H          1.15130        3.47412        2.61134
H          2.00933        5.72343        2.44720
H          4.09721        3.37238        1.73630
H          2.84826        4.37104        1.01514
H          3.27160        2.35424       -0.34322
H          1.60959        2.42952        0.24034
