 xtb: 6.5.1 (fef0646)
          01232318353D

 16 14  0     0  0            999 V2000
    3.5051   -1.2332   -1.2239 O   0  0  0  0  0  0  0  0  0  0  0  0
    2.5183   -0.7169   -0.3471 C   0  0  0  0  0  0  0  0  0  0  0  0
    2.9564   -0.9372    1.1012 C   0  0  0  0  0  0  0  0  0  0  0  0
    4.4089   -0.5284    1.3449 C   0  0  0  0  0  0  0  0  0  0  0  0
    4.6367    0.8571    0.9316 N   0  0  0  0  0  0  0  0  0  0  0  0
    2.5404    2.6169    1.9008 Cl  0  0  0  0  0  0  0  0  0  0  0  0
    3.1546   -1.2382   -2.1192 H   0  0  0  0  0  0  0  0  0  0  0  0
    1.5577   -1.2223   -0.5081 H   0  0  0  0  0  0  0  0  0  0  0  0
    2.3729    0.3564   -0.5302 H   0  0  0  0  0  0  0  0  0  0  0  0
    2.8580   -1.9932    1.3526 H   0  0  0  0  0  0  0  0  0  0  0  0
    2.2975   -0.3559    1.7442 H   0  0  0  0  0  0  0  0  0  0  0  0
    5.0670   -1.2189    0.8046 H   0  0  0  0  0  0  0  0  0  0  0  0
    4.6226   -0.6042    2.4128 H   0  0  0  0  0  0  0  0  0  0  0  0
    4.6048    0.9186   -0.0808 H   0  0  0  0  0  0  0  0  0  0  0  0
    5.5401    1.1899    1.2498 H   0  0  0  0  0  0  0  0  0  0  0  0
    3.5546    1.7586    1.4582 H   0  0  0  0  0  0  0  0  0  0  0  0
  1  2  1  0  0  0  0
  2  3  1  0  0  0  0
  3  4  1  0  0  0  0
  4  5  1  0  0  0  0
  1  7  1  0  0  0  0
  2  8  1  0  0  0  0
  2  9  1  0  0  0  0
  3 10  1  0  0  0  0
  3 11  1  0  0  0  0
  4 12  1  0  0  0  0
  4 13  1  0  0  0  0
  5 14  1  0  0  0  0
  5 15  1  0  0  0  0
  6 16  1  0  0  0  0
M  END
