15
 xtb: 6.5.1 (fef0646)
N            0.31386055745480        0.79105043702107        0.20448640086426
C            1.28676293673631       -0.33260656932957        0.33261878645841
C            2.70570842727449        0.18119106491816        0.55385009780118
C            3.24160238977953        0.95717106700007       -0.63965287054023
Cl          -3.18229592341950       -0.75035939964065       -0.18480638859938
H            0.43916195340122        1.33890439364397       -0.62773488816269
H            0.24690115966929        1.35196184040766        1.02377249873644
H           -0.70944921967556        0.37092205786877        0.08264096978546
H            1.23242473865139       -0.97658091219508       -0.57322528233270
H            0.95691219488256       -1.01124265810543        1.14959179981189
H            3.33859464400257       -0.64744497183936        0.79637669184803
H            2.66539929252512        0.82305310205029        1.44559428512873
H            2.60198892333291        1.83645423196863       -0.85745610416451
H            3.21326339582927        0.33706925828700       -1.53886803274194
H            4.22959950400018        1.29901520899486       -0.47169379990169
