13

N          0.96106        0.05916        0.15646
C          2.42108        0.16967        0.29787
C          2.92993        1.53621       -0.13942
C          2.41170        2.58440        0.74046
N          1.94953        3.37155        1.45482
Cl         0.02200       -2.09517       -1.38863
H          0.68283       -0.95945        0.11012
H          0.60425        0.27114       -0.79108
H          0.35623        0.49284        0.85941
H          2.86128       -0.60971       -0.33230
H          2.65698       -0.04999        1.34426
H          2.64029        1.73394       -1.17814
H          4.02468        1.53867       -0.10453
