 xtb: 6.5.1 (fef0646)
          01242310113D

 41 40  0     0  0            999 V2000
   -3.0435   -2.3613   -0.3172 N   0  0  0  0  0  0  0  0  0  0  0  0
   -3.9977   -1.5568    0.4970 C   0  0  0  0  0  0  0  0  0  0  0  0
   -4.4812   -0.3034   -0.2249 C   0  0  0  0  0  0  0  0  0  0  0  0
   -3.3734    0.7057   -0.5380 C   0  0  0  0  0  0  0  0  0  0  0  0
   -2.7101    1.2966    0.7076 C   0  0  0  0  0  0  0  0  0  0  0  0
   -1.7342    2.4370    0.4018 C   0  0  0  0  0  0  0  0  0  0  0  0
   -0.4953    2.0200   -0.3965 C   0  0  0  0  0  0  0  0  0  0  0  0
    0.4390    1.0748    0.3610 C   0  0  0  0  0  0  0  0  0  0  0  0
    1.7250    0.7622   -0.4061 C   0  0  0  0  0  0  0  0  0  0  0  0
    2.6872   -0.1399    0.3683 C   0  0  0  0  0  0  0  0  0  0  0  0
    3.9849   -0.4266   -0.3892 C   0  0  0  0  0  0  0  0  0  0  0  0
    4.9575   -1.3128    0.3915 C   0  0  0  0  0  0  0  0  0  0  0  0
    6.2503   -1.5844   -0.3622 C   0  0  0  0  0  0  0  0  0  0  0  0
   -2.7702   -3.2329    0.1634 H   0  0  0  0  0  0  0  0  0  0  0  0
   -2.1795   -1.8367   -0.5207 H   0  0  0  0  0  0  0  0  0  0  0  0
   -3.4644   -2.6262   -1.2205 H   0  0  0  0  0  0  0  0  0  0  0  0
   -3.5284   -1.2873    1.4498 H   0  0  0  0  0  0  0  0  0  0  0  0
   -4.8542   -2.1890    0.7651 H   0  0  0  0  0  0  0  0  0  0  0  0
   -5.2578    0.1916    0.3713 H   0  0  0  0  0  0  0  0  0  0  0  0
   -4.9797   -0.6037   -1.1548 H   0  0  0  0  0  0  0  0  0  0  0  0
   -3.7833    1.5251   -1.1417 H   0  0  0  0  0  0  0  0  0  0  0  0
   -2.6165    0.2369   -1.1756 H   0  0  0  0  0  0  0  0  0  0  0  0
   -2.1942    0.5081    1.2653 H   0  0  0  0  0  0  0  0  0  0  0  0
   -3.4941    1.6562    1.3860 H   0  0  0  0  0  0  0  0  0  0  0  0
   -1.4082    2.9054    1.3388 H   0  0  0  0  0  0  0  0  0  0  0  0
   -2.2728    3.2254   -0.1386 H   0  0  0  0  0  0  0  0  0  0  0  0
    0.0710    2.9134   -0.6886 H   0  0  0  0  0  0  0  0  0  0  0  0
   -0.7971    1.5578   -1.3427 H   0  0  0  0  0  0  0  0  0  0  0  0
   -0.0819    0.1405    0.5976 H   0  0  0  0  0  0  0  0  0  0  0  0
    0.6928    1.5150    1.3323 H   0  0  0  0  0  0  0  0  0  0  0  0
    2.2329    1.6988   -0.6643 H   0  0  0  0  0  0  0  0  0  0  0  0
    1.4773    0.2983   -1.3679 H   0  0  0  0  0  0  0  0  0  0  0  0
    2.1885   -1.0840    0.6160 H   0  0  0  0  0  0  0  0  0  0  0  0
    2.9224    0.3206    1.3348 H   0  0  0  0  0  0  0  0  0  0  0  0
    4.4768    0.5193   -0.6442 H   0  0  0  0  0  0  0  0  0  0  0  0
    3.7526   -0.8956   -1.3523 H   0  0  0  0  0  0  0  0  0  0  0  0
    4.4630   -2.2596    0.6428 H   0  0  0  0  0  0  0  0  0  0  0  0
    5.1789   -0.8429    1.3581 H   0  0  0  0  0  0  0  0  0  0  0  0
    6.9320   -2.2185    0.2088 H   0  0  0  0  0  0  0  0  0  0  0  0
    6.7788   -0.6567   -0.5880 H   0  0  0  0  0  0  0  0  0  0  0  0
    6.0565   -2.0847   -1.3126 H   0  0  0  0  0  0  0  0  0  0  0  0
  1  2  1  0  0  0  0
  2  3  1  0  0  0  0
  3  4  1  0  0  0  0
  4  5  1  0  0  0  0
  5  6  1  0  0  0  0
  6  7  1  0  0  0  0
  7  8  1  0  0  0  0
  8  9  1  0  0  0  0
  9 10  1  0  0  0  0
 10 11  1  0  0  0  0
 11 12  1  0  0  0  0
 12 13  1  0  0  0  0
  1 14  1  0  0  0  0
  1 15  1  0  0  0  0
  1 16  1  0  0  0  0
  2 17  1  0  0  0  0
  2 18  1  0  0  0  0
  3 19  1  0  0  0  0
  3 20  1  0  0  0  0
  4 21  1  0  0  0  0
  4 22  1  0  0  0  0
  5 23  1  0  0  0  0
  5 24  1  0  0  0  0
  6 25  1  0  0  0  0
  6 26  1  0  0  0  0
  7 27  1  0  0  0  0
  7 28  1  0  0  0  0
  8 29  1  0  0  0  0
  8 30  1  0  0  0  0
  9 31  1  0  0  0  0
  9 32  1  0  0  0  0
 10 33  1  0  0  0  0
 10 34  1  0  0  0  0
 11 35  1  0  0  0  0
 11 36  1  0  0  0  0
 12 37  1  0  0  0  0
 12 38  1  0  0  0  0
 13 39  1  0  0  0  0
 13 40  1  0  0  0  0
 13 41  1  0  0  0  0
M  CHG  1   1   1
M  END
