22
2.977
N           -2.01677  -1.63208   1.45394
C           -2.90236  -0.94429   0.47187
C           -2.15510  -0.55484  -0.80212
C           -0.95612   0.30502  -0.53464
C           -1.08887   1.67934  -0.38262
C            0.00933   2.46486  -0.10406
C            1.25966   1.88488   0.03265
Cl           2.64338   2.87146   0.38198
C            1.40144   0.51447  -0.10727
C            0.30098  -0.26698  -0.38557
Cl           0.02106  -3.83065  -0.41274
H           -1.50971  -2.40814   0.99650
H           -2.53902  -2.01367   2.25457
H           -1.30561  -0.98439   1.81888
H           -3.33333  -0.05064   0.93770
H           -3.75348  -1.59147   0.22756
H           -2.82372  -0.03621  -1.49841
H           -1.83200  -1.45941  -1.32819
H           -2.06277   2.12739  -0.48310
H           -0.08866   3.53083   0.01178
H            2.37703   0.07406   0.00918
H            0.40487  -1.33493  -0.47919
