22
 xtb: 6.5.1 (fef0646)
N           -2.09587098565578       -1.51736657026139        1.53113791158834
C           -2.94107018332962       -0.88923980691578        0.47479680754366
C           -2.15207235266825       -0.56764718203820       -0.79473759358871
C           -0.95502994537109        0.29622562566111       -0.52910222529532
C           -1.09226074320546        1.67013842800779       -0.37209170131961
C            0.00389004834726        2.45847585776659       -0.09403633604487
C            1.25719095917921        1.88195866749753        0.03427906933912
Cl           2.63641449626742        2.87054850846068        0.38200103580524
C            1.40297038904455        0.51245719016165       -0.11192875965169
C            0.30418086077315       -0.27325822696819       -0.38718395431499
Cl           0.11664780696092       -3.92478946914062       -0.49249481743220
H           -1.55737637517776       -2.40319174185079        1.04473798859619
H           -2.56433802758567       -1.94136536001486        2.29287439072460
H           -1.30806315803374       -0.95660902297637        1.80948651449865
H           -3.34644424731959       -0.02689896814391        0.92185904676579
H           -3.76373127979266       -1.57811648518268        0.23213899826879
H           -2.81601976404554       -0.04725579525841       -1.50842573379417
H           -1.82817434770742       -1.47009258212976       -1.31227880389852
H           -2.06442959888774        2.12375423529862       -0.47831137843022
H           -0.09138800474833        3.52867545725587        0.01654307451365
H            2.37818808818125        0.07448478408783        0.00549112344577
H            0.40675250174132       -1.33670644036032       -0.48127508328697
