21
 xtb: 6.5.1 (fef0646)
N           -1.52057986467682       -1.54264757754819       -0.07379494109346
C           -0.21753879012945       -2.19202414161125       -0.42953607417799
C            0.88101048716986       -1.92516247547153        0.59815980935543
C            1.19222708679006       -0.44055474920247        0.80081977751585
C            1.71737247914793        0.25267058165593       -0.45784050944860
C            2.09385430834980        1.70710796422794       -0.21487414257001
Cl          -1.56934960295489        1.65198297033558       -0.08151010700724
H           -1.49377240820362       -0.61175513201919       -0.07054254519128
H           -1.80851349986465       -1.95366910163724        0.86515107458936
H           -2.25270414962268       -1.93582178153058       -0.73727186327878
H            0.11764227740716       -1.86405656151137       -1.41656200670156
H           -0.29761757388837       -3.31943192540101       -0.55633947993669
H            1.82028091478764       -2.44564006508656        0.32650941996623
H            0.59229353073770       -2.37801175717730        1.56231060059812
H            1.89324249435708       -0.30431424289240        1.61374078845635
H            0.26701312031985        0.06952660255564        1.12828013272813
H            0.98118155575081        0.17041379222637       -1.26879920689426
H            2.59599612363501       -0.30651306140642       -0.82372753892592
H            2.84475719554573        1.79909016344318        0.55257925533909
H            1.21309880849605        2.27537243928748        0.11426148348485
H            2.46302645509534        2.18506053331037       -1.12252083299822
