14
 xtb: 6.5.1 (fef0646)
N            0.23421231727160        1.24614690097890        1.06420517016487
C            1.05081643782055        1.53133719922714       -0.14731599584667
C            1.39239605440214        0.25730458411017       -0.92229907706629
C            2.12794869372465       -0.70322252954442       -0.16327020559617
C            2.74814433282824       -1.50634294060247        0.50543038200840
Cl          -2.86764704868128       -0.54774316872871       -0.23236838280662
H           -0.72150880696176        0.72578279227865        0.71613174425925
H           -0.13208432710632        2.04432269972765        1.55588372834166
H            0.62015974620638        0.55468197552208        1.67478607221359
H            1.91617672310715        2.01496165210478        0.20197952412651
H            0.49621533466227        2.22873587819552       -0.79846284724858
H            1.96421638352411        0.51903711706922       -1.81974807083139
H            0.47325759975455       -0.23024921797637       -1.30191687158799
H            3.29188690440788       -2.20906742000017        1.09304437395474
