17
 xtb: 6.5.1 (fef0646)
N           -2.03316232418731        0.28466460174615       -0.58215099397619
C           -1.32892660063768       -0.49567388545815        0.48122490769615
C            0.09445968970181       -0.00916857390117        0.75074357514584
C            1.05811461030324       -0.17151929545968       -0.42837367805988
C            2.46822321183782        0.30702855310885       -0.10160511401181
H           -3.05286070194877        0.04279991856905       -0.58841941090802
H           -1.65764484417921        0.10377042734039       -1.51182241496209
H           -1.96615665431325        1.30264751063552       -0.38200117141882
H           -1.29222945171244       -1.54852858149094        0.18501769251482
H           -1.90889651452705       -0.45739223546111        1.40386043961013
H            0.50229618591750       -0.48395101435153        1.63398082772145
H            0.05108433534690        1.07778904061951        1.00914874251647
H            0.68197057692909        0.34798473601809       -1.30376528840604
H            1.07599864610280       -1.24117420379151       -0.70640358482497
H            2.48903039082352        1.35175176589534        0.14437144402537
H            3.15068624616786        0.14485965927187       -0.95290618473253
H            2.89196222023457       -0.25078687930952        0.74243412496327
