 xtb: 6.5.1 (fef0646)
          01242310103D

 17 16  0     0  0            999 V2000
   -2.0564   -0.4403   -0.4473 N   0  0  0  0  0  0  0  0  0  0  0  0
   -1.3261    0.4077    0.5396 C   0  0  0  0  0  0  0  0  0  0  0  0
    0.1089    0.7331    0.1246 C   0  0  0  0  0  0  0  0  0  0  0  0
    1.0482   -0.4768    0.1254 C   0  0  0  0  0  0  0  0  0  0  0  0
    2.4869   -0.1251   -0.2333 C   0  0  0  0  0  0  0  0  0  0  0  0
   -1.6170   -1.3650   -0.5583 H   0  0  0  0  0  0  0  0  0  0  0  0
   -2.0833    0.0074   -1.3748 H   0  0  0  0  0  0  0  0  0  0  0  0
   -3.0325   -0.6012   -0.1571 H   0  0  0  0  0  0  0  0  0  0  0  0
   -1.3270   -0.0923    1.5161 H   0  0  0  0  0  0  0  0  0  0  0  0
   -1.8936    1.3370    0.6849 H   0  0  0  0  0  0  0  0  0  0  0  0
    0.5208    1.5028    0.7896 H   0  0  0  0  0  0  0  0  0  0  0  0
    0.1019    1.1887   -0.8722 H   0  0  0  0  0  0  0  0  0  0  0  0
    0.6697   -1.2348   -0.5708 H   0  0  0  0  0  0  0  0  0  0  0  0
    1.0196   -0.9555    1.1126 H   0  0  0  0  0  0  0  0  0  0  0  0
    2.9084    0.5940    0.4721 H   0  0  0  0  0  0  0  0  0  0  0  0
    2.5515    0.3210   -1.2278 H   0  0  0  0  0  0  0  0  0  0  0  0
    3.1361   -1.0043   -0.2278 H   0  0  0  0  0  0  0  0  0  0  0  0
  1  2  1  0  0  0  0
  2  3  1  0  0  0  0
  3  4  1  0  0  0  0
  4  5  1  0  0  0  0
  1  6  1  0  0  0  0
  1  7  1  0  0  0  0
  1  8  1  0  0  0  0
  2  9  1  0  0  0  0
  2 10  1  0  0  0  0
  3 11  1  0  0  0  0
  3 12  1  0  0  0  0
  4 13  1  0  0  0  0
  4 14  1  0  0  0  0
  5 15  1  0  0  0  0
  5 16  1  0  0  0  0
  5 17  1  0  0  0  0
M  CHG  1   1   1
M  END
