 xtb: 6.5.1 (fef0646)
          01242310113D

 12 10  0     0  0            999 V2000
    0.1868   -0.6200   -0.1781 N   0  0  0  0  0  0  0  0  0  0  0  0
    1.1497    0.4730   -0.4416 C   0  0  0  0  0  0  0  0  0  0  0  0
    2.5605   -0.0851   -0.4797 C   0  0  0  0  0  0  0  0  0  0  0  0
    2.8167   -0.8163    0.6068 F   0  0  0  0  0  0  0  0  0  0  0  0
   -3.0633    0.5655    0.1498 Cl  0  0  0  0  0  0  0  0  0  0  0  0
   -0.7871   -0.2768   -0.0783 H   0  0  0  0  0  0  0  0  0  0  0  0
    0.4489   -1.1100    0.6916 H   0  0  0  0  0  0  0  0  0  0  0  0
    0.2064   -1.3189   -0.9357 H   0  0  0  0  0  0  0  0  0  0  0  0
    1.0746    1.2212    0.3559 H   0  0  0  0  0  0  0  0  0  0  0  0
    0.9007    0.9903   -1.3763 H   0  0  0  0  0  0  0  0  0  0  0  0
    3.3104    0.7120   -0.5530 H   0  0  0  0  0  0  0  0  0  0  0  0
    2.6943   -0.7293   -1.3567 H   0  0  0  0  0  0  0  0  0  0  0  0
  1  2  1  0  0  0  0
  2  3  1  0  0  0  0
  3  4  1  0  0  0  0
  1  6  1  0  0  0  0
  1  7  1  0  0  0  0
  1  8  1  0  0  0  0
  2  9  1  0  0  0  0
  2 10  1  0  0  0  0
  3 11  1  0  0  0  0
  3 12  1  0  0  0  0
M  END
