17
 xtb: 6.5.1 (fef0646)
N           -1.76331581328982        0.78644646402399        0.31288131232878
C           -1.15380083234372       -0.57150189889852        0.18066956324943
C            0.00929859088571       -0.62840115730203       -0.82429624311163
C            1.41557361430101       -0.56350638273766       -0.21470388433385
C            1.74541145474364        0.76237026023948        0.45708188769955
H           -1.09594747450117        1.48186980275525        0.67891592072558
H           -2.59355729280052        0.76647987172090        0.91538059751917
H           -2.06484930145715        1.11956713742656       -0.63513005275634
H           -1.92713482479189       -1.27822068092260       -0.09306359773435
H           -0.78747921068175       -0.89449236541881        1.16924160169055
H           -0.10913033435598        0.19332830675984       -1.55461178685068
H           -0.07832303615286       -1.54164384850186       -1.43332050040586
H            2.16072811393346       -0.73487795796653       -1.00936285146356
H            1.54016230725557       -1.39773303640345        0.47663604591225
H            1.07541953348363        0.90841242041692        1.34077182281165
H            1.60731107473456        1.59889113435166       -0.18976716620534
H            2.75613283969278        0.77272848707683        0.85526010976074
