 xtb: 6.5.1 (fef0646)
          02032320313D

 17 16  0     0  0            999 V2000
   -1.7621    0.7885    0.2918 N   0  0  0  0  0  0  0  0  0  0  0  0
   -1.1332   -0.5634    0.1858 C   0  0  0  0  0  0  0  0  0  0  0  0
    0.0094   -0.6230   -0.8409 C   0  0  0  0  0  0  0  0  0  0  0  0
    1.4143   -0.5609   -0.2254 C   0  0  0  0  0  0  0  0  0  0  0  0
    1.7235    0.7445    0.4942 C   0  0  0  0  0  0  0  0  0  0  0  0
   -1.0701    1.5051    0.5337 H   0  0  0  0  0  0  0  0  0  0  0  0
   -2.4928    0.8041    1.0108 H   0  0  0  0  0  0  0  0  0  0  0  0
   -2.1906    1.0580   -0.5994 H   0  0  0  0  0  0  0  0  0  0  0  0
   -1.9193   -1.2839   -0.0749 H   0  0  0  0  0  0  0  0  0  0  0  0
   -0.7692   -0.8793    1.1702 H   0  0  0  0  0  0  0  0  0  0  0  0
   -0.1113    0.1959   -1.5579 H   0  0  0  0  0  0  0  0  0  0  0  0
   -0.0791   -1.5394   -1.4389 H   0  0  0  0  0  0  0  0  0  0  0  0
    2.1631   -0.7251   -1.0116 H   0  0  0  0  0  0  0  0  0  0  0  0
    1.5403   -1.4027    0.4667 H   0  0  0  0  0  0  0  0  0  0  0  0
    1.0602    0.8977    1.3457 H   0  0  0  0  0  0  0  0  0  0  0  0
    1.6103    1.5994   -0.1734 H   0  0  0  0  0  0  0  0  0  0  0  0
    2.7458    0.7630    0.8769 H   0  0  0  0  0  0  0  0  0  0  0  0
  1  2  1  0  0  0  0
  2  3  1  0  0  0  0
  3  4  1  0  0  0  0
  4  5  1  0  0  0  0
  1  6  1  0  0  0  0
  1  7  1  0  0  0  0
  1  8  1  0  0  0  0
  2  9  1  0  0  0  0
  2 10  1  0  0  0  0
  3 11  1  0  0  0  0
  3 12  1  0  0  0  0
  4 13  1  0  0  0  0
  4 14  1  0  0  0  0
  5 15  1  0  0  0  0
  5 16  1  0  0  0  0
  5 17  1  0  0  0  0
M  CHG  1   1   1
M  END
