 xtb: 6.5.1 (fef0646)
          01242316583D

 34 34  0     0  0            999 V2000
    4.6642    1.0172   -0.4899 N   0  0  0  0  0  0  0  0  0  0  0  0
    3.4214    0.2659   -0.1521 C   0  0  0  0  0  0  0  0  0  0  0  0
    2.2214    1.1837    0.0518 C   0  0  0  0  0  0  0  0  0  0  0  0
    0.9670    0.4331    0.3888 C   0  0  0  0  0  0  0  0  0  0  0  0
    0.1476   -0.0603   -0.6169 C   0  0  0  0  0  0  0  0  0  0  0  0
   -0.9859   -0.7792   -0.3120 C   0  0  0  0  0  0  0  0  0  0  0  0
    0.6293    0.1731    1.7099 C   0  0  0  0  0  0  0  0  0  0  0  0
   -0.5046   -0.5440    2.0196 C   0  0  0  0  0  0  0  0  0  0  0  0
   -1.3335   -1.0278    1.0120 C   0  0  0  0  0  0  0  0  0  0  0  0
   -2.4946   -1.7362    1.3246 N   0  0  0  0  0  0  0  0  0  0  0  0
   -3.6277   -1.4236    0.9115 N   0  0  0  0  0  0  0  0  0  0  0  0
   -3.8982   -0.2503    0.2056 C   0  0  0  0  0  0  0  0  0  0  0  0
   -3.5442    0.9909    0.7271 C   0  0  0  0  0  0  0  0  0  0  0  0
   -3.7875    2.1453    0.0168 C   0  0  0  0  0  0  0  0  0  0  0  0
   -4.3923    2.0801   -1.2236 C   0  0  0  0  0  0  0  0  0  0  0  0
   -4.7545    0.8557   -1.7510 C   0  0  0  0  0  0  0  0  0  0  0  0
   -4.5113   -0.3008   -1.0435 C   0  0  0  0  0  0  0  0  0  0  0  0
    7.3393   -1.2433   -0.9559 Cl  0  0  0  0  0  0  0  0  0  0  0  0
    4.9106    1.6765    0.2597 H   0  0  0  0  0  0  0  0  0  0  0  0
    4.5415    1.5605   -1.3543 H   0  0  0  0  0  0  0  0  0  0  0  0
    5.4690    0.3810   -0.6285 H   0  0  0  0  0  0  0  0  0  0  0  0
    3.5840   -0.3332    0.7514 H   0  0  0  0  0  0  0  0  0  0  0  0
    3.1997   -0.4587   -0.9441 H   0  0  0  0  0  0  0  0  0  0  0  0
    2.0559    1.7840   -0.8491 H   0  0  0  0  0  0  0  0  0  0  0  0
    2.4382    1.9078    0.8438 H   0  0  0  0  0  0  0  0  0  0  0  0
    0.4091    0.1248   -1.6450 H   0  0  0  0  0  0  0  0  0  0  0  0
   -1.6233   -1.1534   -1.0939 H   0  0  0  0  0  0  0  0  0  0  0  0
    1.2675    0.5393    2.4962 H   0  0  0  0  0  0  0  0  0  0  0  0
   -0.7686   -0.7359    3.0450 H   0  0  0  0  0  0  0  0  0  0  0  0
   -3.0685    1.0309    1.6915 H   0  0  0  0  0  0  0  0  0  0  0  0
   -3.5038    3.1002    0.4284 H   0  0  0  0  0  0  0  0  0  0  0  0
   -4.5818    2.9840   -1.7793 H   0  0  0  0  0  0  0  0  0  0  0  0
   -5.2269    0.8049   -2.7185 H   0  0  0  0  0  0  0  0  0  0  0  0
   -4.7842   -1.2594   -1.4491 H   0  0  0  0  0  0  0  0  0  0  0  0
  1  2  1  0  0  0  0
  2  3  1  0  0  0  0
  3  4  1  0  0  0  0
  4  5  4  0  0  0  0
  5  6  4  0  0  0  0
  4  7  4  0  0  0  0
  7  8  4  0  0  0  0
  6  9  4  0  0  0  0
  8  9  4  0  0  0  0
  9 10  1  0  0  0  0
 10 11  2  0  0  0  0
 11 12  1  0  0  0  0
 12 13  4  0  0  0  0
 13 14  4  0  0  0  0
 14 15  4  0  0  0  0
 15 16  4  0  0  0  0
 12 17  4  0  0  0  0
 16 17  4  0  0  0  0
  1 19  1  0  0  0  0
  1 20  1  0  0  0  0
  1 21  1  0  0  0  0
  2 22  1  0  0  0  0
  2 23  1  0  0  0  0
  3 24  1  0  0  0  0
  3 25  1  0  0  0  0
  5 26  1  0  0  0  0
  6 27  1  0  0  0  0
  7 28  1  0  0  0  0
  8 29  1  0  0  0  0
 13 30  1  0  0  0  0
 14 31  1  0  0  0  0
 15 32  1  0  0  0  0
 16 33  1  0  0  0  0
 17 34  1  0  0  0  0
M  END
