 xtb: 6.5.1 (fef0646)
          01242315583D

 18 16  0     0  0            999 V2000
    1.3624   -0.4563   -0.1304 N   0  0  0  0  0  0  0  0  0  0  0  0
    2.8196   -0.2122   -0.0997 C   0  0  0  0  0  0  0  0  0  0  0  0
    3.1929    0.5759    1.1484 C   0  0  0  0  0  0  0  0  0  0  0  0
    4.6780    0.9324    1.1656 C   0  0  0  0  0  0  0  0  0  0  0  0
    5.0453    1.7345    2.4082 C   0  0  0  0  0  0  0  0  0  0  0  0
   -0.1616    2.1980   -0.0509 Cl  0  0  0  0  0  0  0  0  0  0  0  0
    1.0829   -0.9528   -0.9786 H   0  0  0  0  0  0  0  0  0  0  0  0
    0.8464    0.4602   -0.1115 H   0  0  0  0  0  0  0  0  0  0  0  0
    1.0637   -0.9824    0.6945 H   0  0  0  0  0  0  0  0  0  0  0  0
    3.0910    0.3649   -0.9831 H   0  0  0  0  0  0  0  0  0  0  0  0
    3.3487   -1.1659   -0.1184 H   0  0  0  0  0  0  0  0  0  0  0  0
    2.9571   -0.0032    2.0426 H   0  0  0  0  0  0  0  0  0  0  0  0
    2.5968    1.4904    1.1745 H   0  0  0  0  0  0  0  0  0  0  0  0
    4.9207    1.5178    0.2770 H   0  0  0  0  0  0  0  0  0  0  0  0
    5.2739    0.0181    1.1381 H   0  0  0  0  0  0  0  0  0  0  0  0
    4.4720    2.6585    2.4464 H   0  0  0  0  0  0  0  0  0  0  0  0
    6.1025    1.9880    2.4037 H   0  0  0  0  0  0  0  0  0  0  0  0
    4.8326    1.1654    3.3102 H   0  0  0  0  0  0  0  0  0  0  0  0
  1  2  1  0  0  0  0
  2  3  1  0  0  0  0
  3  4  1  0  0  0  0
  4  5  1  0  0  0  0
  1  7  1  0  0  0  0
  1  8  1  0  0  0  0
  1  9  1  0  0  0  0
  2 10  1  0  0  0  0
  2 11  1  0  0  0  0
  3 12  1  0  0  0  0
  3 13  1  0  0  0  0
  4 14  1  0  0  0  0
  4 15  1  0  0  0  0
  5 16  1  0  0  0  0
  5 17  1  0  0  0  0
  5 18  1  0  0  0  0
M  END
