 xtb: 6.5.1 (fef0646)
          01232319553D

 18 16  0     0  0            999 V2000
    1.1925    0.1262   -0.3702 N   0  0  0  0  0  0  0  0  0  0  0  0
    2.6546    0.1428   -0.3403 C   0  0  0  0  0  0  0  0  0  0  0  0
    3.1454    1.2247    0.6162 C   0  0  0  0  0  0  0  0  0  0  0  0
    4.6651    1.2124    0.7590 C   0  0  0  0  0  0  0  0  0  0  0  0
    5.1472    2.3066    1.7030 C   0  0  0  0  0  0  0  0  0  0  0  0
    0.1454   -0.4947    2.2963 Cl  0  0  0  0  0  0  0  0  0  0  0  0
    0.8432   -0.5873   -1.0003 H   0  0  0  0  0  0  0  0  0  0  0  0
    0.8290    1.0276   -0.6620 H   0  0  0  0  0  0  0  0  0  0  0  0
    0.6446   -0.1993    1.0515 H   0  0  0  0  0  0  0  0  0  0  0  0
    3.0851    0.3089   -1.3386 H   0  0  0  0  0  0  0  0  0  0  0  0
    2.9855   -0.8367    0.0126 H   0  0  0  0  0  0  0  0  0  0  0  0
    2.6837    1.0629    1.5906 H   0  0  0  0  0  0  0  0  0  0  0  0
    2.8237    2.2030    0.2506 H   0  0  0  0  0  0  0  0  0  0  0  0
    5.1248    1.3498   -0.2229 H   0  0  0  0  0  0  0  0  0  0  0  0
    4.9813    0.2393    1.1398 H   0  0  0  0  0  0  0  0  0  0  0  0
    4.8625    3.2875    1.3288 H   0  0  0  0  0  0  0  0  0  0  0  0
    6.2296    2.2777    1.8014 H   0  0  0  0  0  0  0  0  0  0  0  0
    4.7081    2.1762    2.6891 H   0  0  0  0  0  0  0  0  0  0  0  0
  1  2  1  0  0  0  0
  2  3  1  0  0  0  0
  3  4  1  0  0  0  0
  4  5  1  0  0  0  0
  1  7  1  0  0  0  0
  1  8  1  0  0  0  0
  6  9  1  0  0  0  0
  2 10  1  0  0  0  0
  2 11  1  0  0  0  0
  3 12  1  0  0  0  0
  3 13  1  0  0  0  0
  4 14  1  0  0  0  0
  4 15  1  0  0  0  0
  5 16  1  0  0  0  0
  5 17  1  0  0  0  0
  5 18  1  0  0  0  0
M  END
