28

N          3.71683        0.48641        1.55496
C          2.68179        0.67502        0.50035
C          3.26680        1.46812       -0.66495
O          4.38886        0.74558       -1.17927
C          5.06153        1.32949       -2.23373
C          4.67497        2.53981       -2.82387
C          5.41715        3.08956       -3.86563
C          6.55559        2.44053       -4.32805
C          6.96772        1.22682       -3.76232
C          8.12547        0.58998       -4.23559
C          8.55134       -0.61810       -3.68693
C          7.81804       -1.21124       -2.66836
C          6.66168       -0.58884       -2.18767
C          6.21418        0.64588       -2.71080
H          3.36595       -0.07943        2.33790
H          4.05827        1.37958        1.93230
H          4.53378        0.00060        1.15057
H          1.83933        1.19672        0.96218
H          2.38178       -0.32959        0.18926
H          3.58906        2.45300       -0.30378
H          2.49609        1.57737       -1.43589
H          3.79884        3.09435       -2.50708
H          5.11150        4.02990       -4.31807
H          7.12238        2.88992       -5.14154
H          8.71163        1.03393       -5.04077
H          9.45503       -1.09476       -4.06171
H          8.14502       -2.15978       -2.24950
H          6.10352       -1.08778       -1.40135
