21
0.0
N           -2.30727  -0.20477  -1.18566
C           -1.66395   0.41788   0.01571
C           -2.31626  -0.06141   1.30845
C           -0.16979   0.19289   0.01258
C            0.71429   1.27827  -0.03559
C            2.09153   1.07581  -0.04323
C            2.60655  -0.21481  -0.00331
C            1.74197  -1.30242   0.04324
C            0.36446  -1.09968   0.05024
H           -1.86965   0.12879  -2.05649
H           -3.31256   0.01565  -1.23318
H           -2.21541  -1.22963  -1.16402
H           -1.82880   1.50623  -0.06407
H           -2.19766  -1.13828   1.42705
H           -3.38635   0.15191   1.31771
H           -1.87048   0.41749   2.18191
H            0.32239   2.28159  -0.06773
H            2.76096   1.92161  -0.08040
H            3.67459  -0.37193  -0.00867
H            2.14006  -2.30509   0.07422
H           -0.29868  -1.94731   0.08564
