21
0.0
N           -2.30901  -0.20807  -1.18577
C           -1.66219   0.41939   0.01500
C           -2.30535  -0.05886   1.31193
C           -0.16942   0.19376   0.00988
C            0.36184  -1.09757   0.05189
C            1.73756  -1.30217   0.04379
C            2.60266  -0.21619  -0.00490
C            2.08928   1.07425  -0.04491
C            0.71370   1.27767  -0.03747
H           -3.30919   0.01592  -1.22765
H           -2.21631  -1.22866  -1.15272
H           -1.86633   0.12111  -2.05035
H           -1.82771   1.50656  -0.06628
H           -2.19197  -1.13580   1.42539
H           -3.37218   0.16261   1.33284
H           -1.84484   0.41390   2.17972
H           -0.30204  -1.94288   0.09335
H            2.13282  -2.30424   0.07523
H            3.66892  -0.37422  -0.01128
H            2.75804   1.91848  -0.08175
H            0.32198   2.27966  -0.06861
