 xtb: 6.5.1 (fef0646)
          02032321543D

 21 21  0     0  0            999 V2000
   -2.3090   -0.2081   -1.1858 N   0  0  0  0  0  0  0  0  0  0  0  0
   -1.6622    0.4194    0.0150 C   0  0  0  0  0  0  0  0  0  0  0  0
   -2.3053   -0.0588    1.3119 C   0  0  0  0  0  0  0  0  0  0  0  0
   -0.1694    0.1938    0.0099 C   0  0  0  0  0  0  0  0  0  0  0  0
    0.3618   -1.0976    0.0519 C   0  0  0  0  0  0  0  0  0  0  0  0
    1.7376   -1.3022    0.0438 C   0  0  0  0  0  0  0  0  0  0  0  0
    2.6027   -0.2162   -0.0049 C   0  0  0  0  0  0  0  0  0  0  0  0
    2.0893    1.0742   -0.0449 C   0  0  0  0  0  0  0  0  0  0  0  0
    0.7137    1.2777   -0.0375 C   0  0  0  0  0  0  0  0  0  0  0  0
   -3.3092    0.0159   -1.2276 H   0  0  0  0  0  0  0  0  0  0  0  0
   -2.2163   -1.2287   -1.1527 H   0  0  0  0  0  0  0  0  0  0  0  0
   -1.8663    0.1211   -2.0503 H   0  0  0  0  0  0  0  0  0  0  0  0
   -1.8277    1.5066   -0.0663 H   0  0  0  0  0  0  0  0  0  0  0  0
   -2.1920   -1.1358    1.4254 H   0  0  0  0  0  0  0  0  0  0  0  0
   -3.3722    0.1626    1.3329 H   0  0  0  0  0  0  0  0  0  0  0  0
   -1.8448    0.4139    2.1797 H   0  0  0  0  0  0  0  0  0  0  0  0
   -0.3020   -1.9429    0.0934 H   0  0  0  0  0  0  0  0  0  0  0  0
    2.1328   -2.3043    0.0752 H   0  0  0  0  0  0  0  0  0  0  0  0
    3.6689   -0.3742   -0.0113 H   0  0  0  0  0  0  0  0  0  0  0  0
    2.7580    1.9185   -0.0818 H   0  0  0  0  0  0  0  0  0  0  0  0
    0.3220    2.2797   -0.0686 H   0  0  0  0  0  0  0  0  0  0  0  0
  1  2  1  0  0  0  0
  2  3  1  0  0  0  0
  2  4  1  0  0  0  0
  4  5  4  0  0  0  0
  5  6  4  0  0  0  0
  6  7  4  0  0  0  0
  7  8  4  0  0  0  0
  4  9  4  0  0  0  0
  8  9  4  0  0  0  0
  1 10  1  0  0  0  0
  1 11  1  0  0  0  0
  1 12  1  0  0  0  0
  2 13  1  0  0  0  0
  3 14  1  0  0  0  0
  3 15  1  0  0  0  0
  3 16  1  0  0  0  0
  5 17  1  0  0  0  0
  6 18  1  0  0  0  0
  7 19  1  0  0  0  0
  8 20  1  0  0  0  0
  9 21  1  0  0  0  0
M  CHG  1   1   1
M  END
