29
 xtb: 6.5.1 (fef0646)
N           -2.45012390198712        1.65275455506485       -0.43439625426068
C           -2.94146537829388        0.28234950512756       -0.14706039748557
C           -1.93276268606980       -0.40721175820141        0.75173917025852
O           -0.64095978607860       -0.35244654057501        0.16242169258316
C            0.38739036569492       -0.86439438458038        0.94586412410252
C            0.21575939310640       -1.41976071514029        2.20378103587792
C            1.29595290458421       -1.90760835378416        2.93282872175000
C            2.56448159145493       -1.85768061270674        2.42456450266267
C            2.80231884357656       -1.30961598214731        1.14814106171898
C            4.09696848230653       -1.24463609434651        0.58791496683807
C            4.29264338957295       -0.70827079334432       -0.65302929444405
C            3.21173114657353       -0.21487649230405       -1.38846686859143
C            1.94665343432686       -0.26367108461946       -0.87193868980859
C            1.71020569842604       -0.80901407017626        0.40167357517500
Cl          -4.78211510026225        3.27734244034341       -2.95439586842495
H           -3.12691134440384        2.13603621163000       -1.17900212659109
H           -1.55342667120153        1.64263198948612       -0.88806069814846
H           -2.46608431435517        2.25882406407676        0.35369009531444
H           -3.04363337869963       -0.28526767274379       -1.09662950921670
H           -3.94681985153684        0.30738351204815        0.28669736816657
H           -2.19783467713074       -1.41406876871306        0.94520016110999
H           -1.87652020662845        0.16497759288668        1.69369268132068
H           -0.77913378118006       -1.46402606460754        2.62327690151180
H            1.11293317675273       -2.32584028741121        3.90455225281551
H            3.38273382702755       -2.24252824464223        2.99223378802774
H            4.92332044145912       -1.62989563508461        1.15686392638882
H            5.28671085597847       -0.66663599643460       -1.06576723337266
H            3.38321121181932        0.20900891248370       -2.36612523202173
H            1.11012818345988        0.11867489136011       -1.43693264216031
