47
 xtb: 6.5.1 (fef0646)
N           -8.21127803937688        2.10590317967704       -0.09490986282837
C           -8.59019166272408        0.83902143358652        0.59837935495359
C           -8.09550458939010       -0.41781233858556       -0.12214506570591
C           -6.61970816615593       -0.61143673149661       -0.06913697002567
C           -5.97126391808367       -1.81219574663965       -0.00890740162864
C           -4.56342369679385       -1.71081100315121        0.00612463247497
C           -4.09419249202818       -0.41786367217265       -0.04241435860260
C           -2.72897755137366       -0.01856823934814       -0.03621855290837
C           -2.26255609069743        1.28115173855975       -0.03446742469729
C           -0.86937816076589        1.40570801715826       -0.01643692327881
C           -0.20604758146934        2.73732614904208       -0.00373875873691
C           -0.20195643794204        0.17469653260187       -0.00965828515126
C            1.20054367523089       -0.03826039219566       -0.00079018246507
C            1.86146996094849       -1.27168978412733        0.00362793304018
C            1.21541363895325       -2.50711919525986        0.00288393708723
N            0.66308507926453       -3.53070354106693        0.00429748640933
C            3.28315089066250       -1.16658350614244        0.00881660887231
C            4.10455245266511       -2.29471492682803        0.01237610793522
N            4.80255348608132       -3.22465925555004        0.01679527905706
C            3.75642210809499        0.14794356353497        0.00890062482664
C            5.12090762474018        0.56360914008382        0.01179376814185
C            5.59982761258586        1.86736025963569        0.00240850151256
C            4.75546129698154        3.09251172449783       -0.01042655326488
C            7.01364198892233        1.94039996457724        0.00583625352072
C            7.63357564705897        0.73546112596426        0.01840977780944
S            6.48680763639817       -0.53524070332478        0.03207269573861
S            2.39606442542291        1.22068229668720        0.00938807060400
S           -1.38677518506945       -1.11162895095714       -0.01737955383088
S           -5.45257886161861        0.66620311737738       -0.15744575958482
H           -8.54953602348585        2.93605691468243        0.38401404820615
H           -8.61486936948024        2.11340812282328       -1.06229176592229
H           -7.19594294749543        2.17603978855369       -0.20916925260531
H           -9.66759876714125        0.81485043057736        0.72749861295672
H           -8.15872014021432        0.86813947038960        1.61230497413766
H           -8.41995134785277       -0.39096238180009       -1.16376334360404
H           -8.57592856725549       -1.30318174756563        0.31899647648282
H           -6.49094417609812       -2.75912999523025       -0.04621731141264
H           -3.90568156072896       -2.56722209298888       -0.00819034944894
H           -2.92690493694050        2.13069273163560       -0.03676283268763
H            0.41798816902383        2.86417098996769       -0.88724140953121
H            0.42035395981189        2.85003323316648        0.88209651143639
H           -0.93972144543030        3.54447801624489        0.00480351081565
H            4.11827601563567        3.13007347902121        0.87129022626453
H            4.12045972020163        3.11500656972123       -0.89831825394942
H            5.36796367009973        3.99404349095654       -0.01938011556609
H            7.54795133705209        2.87808071539773       -0.00566569740284
H            8.69570190405225        0.57895202972464        0.01481832926679
