 xtb: 6.5.1 (fef0646)
          01242310043D

 24 24  0     0  0            999 V2000
   -2.7436   -0.5545   -0.4535 N   0  0  0  0  0  0  0  0  0  0  0  0
   -1.5904    0.3929   -0.4367 C   0  0  0  0  0  0  0  0  0  0  0  0
   -0.5996    0.1337    0.7103 C   0  0  0  0  0  0  0  0  0  0  0  0
    0.4211    1.2950    0.8760 C   0  0  0  0  0  0  0  0  0  0  0  0
    1.4839    1.3110   -0.2377 C   0  0  0  0  0  0  0  0  0  0  0  0
    2.2096   -0.0404   -0.3440 C   0  0  0  0  0  0  0  0  0  0  0  0
    1.2132   -1.1948   -0.5432 C   0  0  0  0  0  0  0  0  0  0  0  0
    0.1502   -1.2194    0.5699 C   0  0  0  0  0  0  0  0  0  0  0  0
   -3.2566   -0.5321    0.4397 H   0  0  0  0  0  0  0  0  0  0  0  0
   -2.4421   -1.5260   -0.6147 H   0  0  0  0  0  0  0  0  0  0  0  0
   -3.4161   -0.3183   -1.1986 H   0  0  0  0  0  0  0  0  0  0  0  0
   -1.9775    1.4157   -0.3583 H   0  0  0  0  0  0  0  0  0  0  0  0
   -1.0669    0.3502   -1.3967 H   0  0  0  0  0  0  0  0  0  0  0  0
   -1.2002    0.0846    1.6348 H   0  0  0  0  0  0  0  0  0  0  0  0
    0.9194    1.2094    1.8489 H   0  0  0  0  0  0  0  0  0  0  0  0
   -0.1111    2.2540    0.9060 H   0  0  0  0  0  0  0  0  0  0  0  0
    2.2065    2.1209   -0.0661 H   0  0  0  0  0  0  0  0  0  0  0  0
    1.0104    1.5489   -1.1971 H   0  0  0  0  0  0  0  0  0  0  0  0
    2.7918   -0.2145    0.5688 H   0  0  0  0  0  0  0  0  0  0  0  0
    2.9462   -0.0206   -1.1590 H   0  0  0  0  0  0  0  0  0  0  0  0
    1.7448   -2.1554   -0.5869 H   0  0  0  0  0  0  0  0  0  0  0  0
    0.7261   -1.0940   -1.5196 H   0  0  0  0  0  0  0  0  0  0  0  0
    0.6350   -1.4669    1.5219 H   0  0  0  0  0  0  0  0  0  0  0  0
   -0.5661   -2.0303    0.3939 H   0  0  0  0  0  0  0  0  0  0  0  0
  1  2  1  0  0  0  0
  2  3  1  0  0  0  0
  3  4  1  0  0  0  0
  4  5  1  0  0  0  0
  5  6  1  0  0  0  0
  6  7  1  0  0  0  0
  3  8  1  0  0  0  0
  7  8  1  0  0  0  0
  1  9  1  0  0  0  0
  1 10  1  0  0  0  0
  1 11  1  0  0  0  0
  2 12  1  0  0  0  0
  2 13  1  0  0  0  0
  3 14  1  0  0  0  0
  4 15  1  0  0  0  0
  4 16  1  0  0  0  0
  5 17  1  0  0  0  0
  5 18  1  0  0  0  0
  6 19  1  0  0  0  0
  6 20  1  0  0  0  0
  7 21  1  0  0  0  0
  7 22  1  0  0  0  0
  8 23  1  0  0  0  0
  8 24  1  0  0  0  0
M  CHG  1   1   1
M  END
