27
 xtb: 6.5.1 (fef0646)
N           -4.85645354641246        0.65950335252206        0.45000831022932
C           -3.40052956444381        0.38758494458485        0.65944051732793
C           -2.65704699240900        0.13768344900413       -0.65267259623456
C           -1.20594319511617       -0.18536423419856       -0.44719074568081
C           -0.26483851339532        0.82572003932015       -0.31933582472254
C            1.09521979484894        0.53607879731200       -0.10640880526161
C            2.06796089223163        1.54461571886349        0.02236016528373
C            3.39354651909229        1.22103640767814        0.22579026138784
C            3.79175381657029       -0.10648066409756        0.30160365680202
C            2.86540840110717       -1.12200240626776        0.18915835933259
C            1.50472189087231       -0.83008128424014       -0.01590397726746
C            0.53234259349117       -1.83703422112733       -0.13964177825731
C           -0.79176615381045       -1.51360620538407       -0.35036172798821
H           -5.34955597193185       -0.12869709961983       -0.00048160232008
H           -4.95533838498941        1.48784900495227       -0.16196434687183
H           -5.32697510871476        0.86304850253325        1.34678260621136
H           -3.32789087833787       -0.57963037867742        1.25753234920348
H           -2.94184415462575        1.12311730778102        1.25352914244554
H           -2.73235465694047        1.07616985574230       -1.24947479104060
H           -3.12279787748993       -0.61927424687187       -1.25791560072994
H           -0.56587332341102        1.86076770153961       -0.40403364149060
H            1.78086293012670        2.57610241306000       -0.07622443548511
H            4.13887916545378        1.99872069844037        0.29319369875232
H            4.83024108215343       -0.35180547218784        0.46746177390065
H            3.16972781950351       -2.15172546081592        0.28065617706025
H            0.81900563651253       -2.86266831976012       -0.03965145187123
H           -1.53595373935588       -2.28224617834744       -0.41518093676596
