21
 xtb: 6.5.1 (fef0646)
N           -0.67098481314155       -0.81950636347490        0.57277604698699
C            0.19682205969480       -0.65852509774093       -0.62934378401448
C            1.52549071808022       -1.38621005080071       -0.45785364506328
C            2.35195927484678       -0.88046874329008        0.72751288823689
C            2.74078361038634        0.59866104223006        0.63665192384264
C            3.62044854254973        0.91306850765180       -0.56468689038150
Cl          -3.98577816875453        0.96234097973481       -0.15430154882394
H           -0.92316580396429       -1.76778724108223        0.75149988147295
H           -1.63938619089025       -0.30906188797883        0.39015269433393
H           -0.31478499779033       -0.35715938084955        1.38819793248631
H            0.35248681940157        0.42793912132589       -0.83147651845687
H           -0.35125172142563       -1.00287809899743       -1.52966897221841
H            2.08258016485521       -1.30886551743898       -1.37056509697971
H            1.27861970020961       -2.44371159786762       -0.32567277375765
H            3.22803113614705       -1.48330441470829        0.82577743505949
H            1.76806322125346       -1.04529993123428        1.66262147589873
H            3.24648974209528        0.89954425847570        1.55738700059815
H            1.82981186812772        1.23153591376253        0.60701073067782
H            3.93275304761641        1.94928258039669       -0.58438186577838
H            3.09556968330985        0.70913489645282       -1.50506280996191
H            4.51294267586819        0.28743688934103       -0.55680712655185
