 xtb: 6.5.1 (fef0646)
          01242317103D

 21 19  0     0  0            999 V2000
   -0.7591   -0.7568    0.5357 N   0  0  0  0  0  0  0  0  0  0  0  0
    0.1533   -0.6239   -0.6368 C   0  0  0  0  0  0  0  0  0  0  0  0
    1.4723   -1.3688   -0.4487 C   0  0  0  0  0  0  0  0  0  0  0  0
    2.3084   -0.8689    0.7325 C   0  0  0  0  0  0  0  0  0  0  0  0
    2.7223    0.6029    0.6351 C   0  0  0  0  0  0  0  0  0  0  0  0
    3.6098    0.9017   -0.5645 C   0  0  0  0  0  0  0  0  0  0  0  0
   -3.8012    0.8762   -0.1287 Cl  0  0  0  0  0  0  0  0  0  0  0  0
   -0.9513   -1.7495    0.7433 H   0  0  0  0  0  0  0  0  0  0  0  0
   -1.6655   -0.2889    0.3707 H   0  0  0  0  0  0  0  0  0  0  0  0
   -0.3459   -0.3387    1.3808 H   0  0  0  0  0  0  0  0  0  0  0  0
    0.3453    0.4370   -0.8337 H   0  0  0  0  0  0  0  0  0  0  0  0
   -0.3598   -0.9916   -1.5348 H   0  0  0  0  0  0  0  0  0  0  0  0
    2.0678   -1.3085   -1.3680 H   0  0  0  0  0  0  0  0  0  0  0  0
    1.2587   -2.4375   -0.3206 H   0  0  0  0  0  0  0  0  0  0  0  0
    3.2122   -1.4845    0.8285 H   0  0  0  0  0  0  0  0  0  0  0  0
    1.7539   -1.0371    1.6639 H   0  0  0  0  0  0  0  0  0  0  0  0
    3.2415    0.8996    1.5571 H   0  0  0  0  0  0  0  0  0  0  0  0
    1.8270    1.2363    0.6051 H   0  0  0  0  0  0  0  0  0  0  0  0
    3.9327    1.9451   -0.5855 H   0  0  0  0  0  0  0  0  0  0  0  0
    3.0928    0.7059   -1.5052 H   0  0  0  0  0  0  0  0  0  0  0  0
    4.5081    0.2816   -0.5550 H   0  0  0  0  0  0  0  0  0  0  0  0
  1  2  1  0  0  0  0
  2  3  1  0  0  0  0
  3  4  1  0  0  0  0
  4  5  1  0  0  0  0
  5  6  1  0  0  0  0
  1  8  1  0  0  0  0
  1  9  1  0  0  0  0
  1 10  1  0  0  0  0
  2 11  1  0  0  0  0
  2 12  1  0  0  0  0
  3 13  1  0  0  0  0
  3 14  1  0  0  0  0
  4 15  1  0  0  0  0
  4 16  1  0  0  0  0
  5 17  1  0  0  0  0
  5 18  1  0  0  0  0
  6 19  1  0  0  0  0
  6 20  1  0  0  0  0
  6 21  1  0  0  0  0
M  END
