23
2.666
N           -2.38149  -0.54545  -0.19461
C           -1.72875   0.44927   0.69836
C           -0.27862   0.18016   0.86639
C            0.60409   0.41008  -0.10237
C            2.04175   0.13685  -0.00952
C            2.55425  -0.82369   0.86249
C            3.91148  -1.06669   0.92781
C            4.78270  -0.35824   0.12342
C            4.29315   0.59301  -0.75030
C            2.93641   0.83725  -0.81829
Cl          -5.76678   0.12044  -0.58514
H           -3.39202  -0.35815  -0.31644
H           -2.28054  -1.50365   0.18665
H           -1.94612  -0.54383  -1.13046
H           -2.23191   0.45687   1.67375
H           -1.86662   1.45866   0.29133
H            0.06041  -0.24207   1.79821
H            0.24965   0.83831  -1.02554
H            1.87901  -1.39267   1.47966
H            4.29256  -1.81363   1.60663
H            5.84322  -0.54918   0.17578
H            4.97225   1.14590  -1.38040
H            2.55470   1.58085  -1.49875
