23
2.807
N           -3.00815   1.31834   0.61291
C           -2.27278   1.78097  -0.59479
C           -0.97023   1.08516  -0.74544
C            0.06514   1.32758   0.05416
C            1.35243   0.62872  -0.01619
C            1.45167  -0.67656  -0.49783
C            2.67208  -1.31923  -0.55037
C            3.81508  -0.67346  -0.12054
C            3.73494   0.61678   0.36629
C            2.51579   1.26162   0.42050
Cl          -2.99115  -2.14749   0.33875
H           -3.94633   1.74374   0.69421
H           -2.48173   1.54055   1.47728
H           -3.12145   0.29130   0.58523
H           -2.10707   2.86384  -0.53818
H           -2.89242   1.62538  -1.48727
H           -0.87886   0.32661  -1.50580
H           -0.03601   2.09065   0.80829
H            0.55987  -1.19239  -0.81326
H            2.73298  -2.32916  -0.92479
H            4.76831  -1.17702  -0.16212
H            4.62656   1.12111   0.70474
H            2.45283   2.26886   0.79883
