29
2.968
N           -2.24827   2.53384  -0.63092
C           -3.10728   1.52507   0.03818
C           -2.26897   0.36456   0.54213
O           -1.21922   0.82556   1.39454
C           -0.23098  -0.14565   1.66127
C           -0.17738  -0.76324   2.90090
C            0.76986  -1.74188   3.18206
C            1.68417  -2.11913   2.23717
C            1.69081  -1.51486   0.96280
C            2.63118  -1.87069  -0.02901
C            2.62467  -1.25509  -1.24826
C            1.68763  -0.25823  -1.52997
C            0.76490   0.10768  -0.59060
C            0.73419  -0.51437   0.66899
Cl          -0.65230   1.33254  -3.46888
H           -1.79978   2.14546  -1.48204
H           -1.49276   2.82414   0.00843
H           -2.77537   3.37880  -0.90861
H           -3.89310   1.17816  -0.64366
H           -3.62022   1.99402   0.88560
H           -1.82134  -0.18282  -0.29344
H           -2.86825  -0.35493   1.11204
H           -0.89856  -0.47331   3.64532
H            0.78004  -2.20810   4.15464
H            2.41513  -2.87890   2.45915
H            3.35758  -2.63521   0.19105
H            3.34781  -1.53563  -1.99803
H            1.69070   0.22202  -2.49542
H            0.05268   0.88605  -0.80253
