29
1.168
N           -2.68231   0.21851  -0.14947
C           -2.73149   1.65558   0.22432
C           -1.33737   2.23359   0.41350
O           -0.69238   1.75920   1.60178
C           -0.18528   0.44855   1.52796
C           -0.71661  -0.53244   2.35351
C           -0.34151  -1.86531   2.22937
C            0.58829  -2.24227   1.30012
C            1.21177  -1.28182   0.47669
C            2.20764  -1.63820  -0.45898
C            2.83563  -0.68316  -1.20613
C            2.50986   0.66549  -1.04450
C            1.54273   1.04089  -0.15381
C            0.84995   0.08088   0.60633
Cl          -0.59206  -0.23684  -2.87182
H           -2.19143  -0.31871   0.58299
H           -2.14391   0.08283  -1.02125
H           -3.62082  -0.19492  -0.27886
H           -3.30313   1.77923   1.15101
H           -3.27656   2.21302  -0.54714
H           -1.36857   3.32637   0.49410
H           -0.71359   1.99694  -0.45289
H           -1.46436  -0.24261   3.07179
H           -0.79342  -2.60748   2.86852
H            0.87255  -3.27700   1.20304
H            2.47201  -2.67670  -0.56952
H            3.59722  -0.96744  -1.91529
H            3.03024   1.41342  -1.62167
H            1.32783   2.08432   0.00299
