  24

 N         -3.4036601188       -1.0759820245       -0.6677696851
 C         -2.2565262216       -0.6170985094        0.1706975384
 C         -1.9891518822        0.8780423359        0.0483260882
 C         -0.7560408711        1.3320135377        0.8408332435
 C          0.5027743203        0.6460425899        0.4011263982
 C          1.1226571312        1.0034317840       -0.7998064727
 C          2.2599723737        0.3343670522       -1.2387285866
 C          2.7925687812       -0.7030588030       -0.4829122855
 C          2.1855337815       -1.0708065778        0.7117240305
 C          1.0468514648       -0.4028663656        1.1490511809
 H         -3.5553503676       -2.0859043429       -0.5746728007
 H         -3.2333610089       -0.8703577624       -1.6577244486
 H         -4.2668775719       -0.5970955286       -0.3910670195
 H         -1.3565391023       -1.1706077146       -0.1179562441
 H         -2.4405575287       -0.8777429787        1.2189554853
 H         -2.8756759697        1.4353774939        0.3701271394
 H         -1.8546403306        1.1313040258       -1.0081795000
 H         -0.9145825889        1.1450335325        1.9077007995
 H         -0.6199895509        2.4154534649        0.7517636845
 H          0.7099271737        1.8049193915       -1.3876187584
 H          2.7280368674        0.6199030120       -2.1661695189
 H          3.6746987025       -1.2206285995       -0.8222346430
 H          2.5976487153       -1.8739352163        1.3000123833
 H          0.5789113153       -0.6905518486        2.0745109617
          24
        -28.99434151
 N         -1.6429910349       -1.5693671289        0.7011711649
 C         -2.6158854600       -0.6640070715        0.0212348328
 C         -2.2702236471        0.8183915290        0.1718969952
 C         -1.1179424074        1.2924937413       -0.7281667855
 C          0.2126556496        0.6859629039       -0.3980654288
 C          0.7991334221       -0.2667877810       -1.2387224119
 C          2.0091666491       -0.8626472961       -0.9006951557
 C          2.6554880278       -0.5068325399        0.2768681311
 C          2.0916349181        0.4474873214        1.1147439576
 C          0.8783817979        1.0388727330        0.7793197176
 H         -1.6299643473       -1.4008703196        1.7143628549
 H         -0.6958212990       -1.3958034501        0.3448664309
 H         -1.8666468720       -2.5599803663        0.5439010440
 H         -3.6148151429       -0.8631915106        0.4287118086
 H         -2.6748204787       -0.9212124671       -1.0422326517
 H         -2.0225107747        1.0218937341        1.2184724180
 H         -3.1611821867        1.4234228499       -0.0381199525
 H         -1.0202118387        2.3826469392       -0.6720422881
 H         -1.3617731313        1.0799370134       -1.7740685359
 H          0.3052252117       -0.5384569038       -2.1557233211
 H          2.4506721287       -1.5947077819       -1.5566499077
 H          3.5963491242       -0.9641462032        0.5357012147
 H          2.5954100499        0.7307410572        2.0241466148
 H          0.4433861420        1.7787529218        1.4286316701
