19
2.256
N           -1.60537  -1.59128   0.74657
C           -2.27146  -0.80482  -0.32914
C           -1.26841   0.03342  -1.12019
C           -0.49328   0.96445  -0.25789
C           -0.90621   2.19456   0.13481
C            0.02912   2.86949   0.97203
C            1.14437   2.14742   1.21184
S            1.07796   0.61302   0.41699
Cl           1.28999  -2.48951  -0.92515
H           -0.80458  -2.11045   0.35084
H           -2.24018  -2.26129   1.20326
H           -1.22250  -0.96584   1.46819
H           -3.03405  -0.15377   0.11374
H           -2.81265  -1.48180  -1.00159
H           -1.77471   0.60429  -1.90742
H           -0.56611  -0.62771  -1.63911
H           -1.85452   2.61709  -0.15915
H           -0.14099   3.85807   1.37225
H            1.97311   2.46637   1.81539
