19
 xtb: 6.5.1 (fef0646)
N           -1.57021571601074       -1.61793764932328        0.70579902445727
C           -2.25608682660814       -0.81801984065919       -0.34786751132310
C           -1.26356784258702        0.03985336927749       -1.13158978839986
C           -0.48687604969098        0.96200040665308       -0.26086314239115
C           -0.91749409066053        2.17433078963724        0.16871254485442
C            0.01958717012527        2.84915431730153        1.00400120059585
C            1.15502835642617        2.14496351420811        1.20361933075352
S            1.11887685849428        0.63550296931946        0.35149637559036
Cl           1.21343836839442       -2.45653281884170       -0.84690016825813
H           -0.76844493492725       -2.08346562604839        0.33926753137739
H           -2.21779433517571       -2.29814554325245        1.16615930859859
H           -1.24642404346691       -0.97903501499722        1.47954605633971
H           -3.03169886370296       -0.16210891228726        0.11139982169111
H           -2.80644176485364       -1.48415674022765       -1.00989152365759
H           -1.77532190533302        0.60889968717585       -1.90750474040767
H           -0.56520432053055       -0.62299172967685       -1.64629818937545
H           -1.86155503868568        2.60789902508013       -0.14198440330564
H           -0.14700259204892        3.84880150032061        1.38846086933229
H            1.97813101676212        2.46667014507569        1.80983940011435
