 xtb: 6.5.1 (fef0646)
          01242317073D

 19 18  0     0  0            999 V2000
   -1.6054   -1.5913    0.7466 N   0  0  0  0  0  0  0  0  0  0  0  0
   -2.2715   -0.8048   -0.3291 C   0  0  0  0  0  0  0  0  0  0  0  0
   -1.2684    0.0334   -1.1202 C   0  0  0  0  0  0  0  0  0  0  0  0
   -0.4933    0.9645   -0.2579 C   0  0  0  0  0  0  0  0  0  0  0  0
   -0.9062    2.1946    0.1348 C   0  0  0  0  0  0  0  0  0  0  0  0
    0.0291    2.8695    0.9720 C   0  0  0  0  0  0  0  0  0  0  0  0
    1.1444    2.1474    1.2118 C   0  0  0  0  0  0  0  0  0  0  0  0
    1.0780    0.6130    0.4170 S   0  0  0  0  0  0  0  0  0  0  0  0
    1.2900   -2.4895   -0.9252 Cl  0  0  0  0  0  0  0  0  0  0  0  0
   -0.8046   -2.1104    0.3508 H   0  0  0  0  0  0  0  0  0  0  0  0
   -2.2402   -2.2613    1.2033 H   0  0  0  0  0  0  0  0  0  0  0  0
   -1.2225   -0.9658    1.4682 H   0  0  0  0  0  0  0  0  0  0  0  0
   -3.0341   -0.1538    0.1138 H   0  0  0  0  0  0  0  0  0  0  0  0
   -2.8127   -1.4818   -1.0016 H   0  0  0  0  0  0  0  0  0  0  0  0
   -1.7747    0.6043   -1.9074 H   0  0  0  0  0  0  0  0  0  0  0  0
   -0.5661   -0.6277   -1.6391 H   0  0  0  0  0  0  0  0  0  0  0  0
   -1.8545    2.6171   -0.1591 H   0  0  0  0  0  0  0  0  0  0  0  0
   -0.1410    3.8581    1.3722 H   0  0  0  0  0  0  0  0  0  0  0  0
    1.9731    2.4664    1.8154 H   0  0  0  0  0  0  0  0  0  0  0  0
  1  2  1  0  0  0  0
  2  3  1  0  0  0  0
  3  4  1  0  0  0  0
  4  5  2  0  0  0  0
  5  6  4  0  0  0  0
  6  7  2  0  0  0  0
  4  8  1  0  0  0  0
  7  8  1  0  0  0  0
  1 10  1  0  0  0  0
  1 11  1  0  0  0  0
  1 12  1  0  0  0  0
  2 13  1  0  0  0  0
  2 14  1  0  0  0  0
  3 15  1  0  0  0  0
  3 16  1  0  0  0  0
  5 17  1  0  0  0  0
  6 18  1  0  0  0  0
  7 19  1  0  0  0  0
M  END
