 xtb: 6.5.1 (fef0646)
          01242310113D

 41 40  0     0  0            999 V2000
   -5.6276   -1.0865   -0.6881 N   0  0  0  0  0  0  0  0  0  0  0  0
   -5.3561    0.2827   -0.1654 C   0  0  0  0  0  0  0  0  0  0  0  0
   -4.3213    1.0398   -0.9919 C   0  0  0  0  0  0  0  0  0  0  0  0
   -2.9302    0.4008   -0.9967 C   0  0  0  0  0  0  0  0  0  0  0  0
   -2.2533    0.3814    0.3747 C   0  0  0  0  0  0  0  0  0  0  0  0
   -0.8359   -0.1936    0.3381 C   0  0  0  0  0  0  0  0  0  0  0  0
   -0.1576   -0.1998    1.7089 C   0  0  0  0  0  0  0  0  0  0  0  0
    1.2331   -0.8420    1.7124 C   0  0  0  0  0  0  0  0  0  0  0  0
    2.2810   -0.0623    0.9159 C   0  0  0  0  0  0  0  0  0  0  0  0
    3.6768   -0.6829    1.0036 C   0  0  0  0  0  0  0  0  0  0  0  0
    4.7610    0.1156    0.2730 C   0  0  0  0  0  0  0  0  0  0  0  0
    4.5976    0.1369   -1.2479 C   0  0  0  0  0  0  0  0  0  0  0  0
    5.7247    0.8760   -1.9531 C   0  0  0  0  0  0  0  0  0  0  0  0
   -5.9318   -1.0520   -1.6727 H   0  0  0  0  0  0  0  0  0  0  0  0
   -6.3711   -1.5605   -0.1521 H   0  0  0  0  0  0  0  0  0  0  0  0
   -4.7892   -1.6845   -0.6440 H   0  0  0  0  0  0  0  0  0  0  0  0
   -5.0323    0.2168    0.8794 H   0  0  0  0  0  0  0  0  0  0  0  0
   -6.2990    0.8442   -0.1406 H   0  0  0  0  0  0  0  0  0  0  0  0
   -4.2390    2.0716   -0.6285 H   0  0  0  0  0  0  0  0  0  0  0  0
   -4.6902    1.1253   -2.0215 H   0  0  0  0  0  0  0  0  0  0  0  0
   -2.2815    0.9343   -1.7027 H   0  0  0  0  0  0  0  0  0  0  0  0
   -2.9913   -0.6204   -1.3886 H   0  0  0  0  0  0  0  0  0  0  0  0
   -2.8596   -0.1944    1.0826 H   0  0  0  0  0  0  0  0  0  0  0  0
   -2.2249    1.3983    0.7832 H   0  0  0  0  0  0  0  0  0  0  0  0
   -0.2306    0.3764   -0.3753 H   0  0  0  0  0  0  0  0  0  0  0  0
   -0.8649   -1.2139   -0.0615 H   0  0  0  0  0  0  0  0  0  0  0  0
   -0.8081   -0.7209    2.4224 H   0  0  0  0  0  0  0  0  0  0  0  0
   -0.0870    0.8272    2.0853 H   0  0  0  0  0  0  0  0  0  0  0  0
    1.1651   -1.8642    1.3224 H   0  0  0  0  0  0  0  0  0  0  0  0
    1.5859   -0.9539    2.7452 H   0  0  0  0  0  0  0  0  0  0  0  0
    2.3181    0.9725    1.2756 H   0  0  0  0  0  0  0  0  0  0  0  0
    1.9719    0.0082   -0.1322 H   0  0  0  0  0  0  0  0  0  0  0  0
    3.6469   -1.7050    0.6087 H   0  0  0  0  0  0  0  0  0  0  0  0
    3.9483   -0.7937    2.0608 H   0  0  0  0  0  0  0  0  0  0  0  0
    5.7499   -0.2932    0.5158 H   0  0  0  0  0  0  0  0  0  0  0  0
    4.7768    1.1438    0.6528 H   0  0  0  0  0  0  0  0  0  0  0  0
    3.6344    0.5918   -1.5088 H   0  0  0  0  0  0  0  0  0  0  0  0
    4.5363   -0.8939   -1.6190 H   0  0  0  0  0  0  0  0  0  0  0  0
    5.5937    0.8855   -3.0372 H   0  0  0  0  0  0  0  0  0  0  0  0
    6.6914    0.4145   -1.7449 H   0  0  0  0  0  0  0  0  0  0  0  0
    5.7855    1.9140   -1.6213 H   0  0  0  0  0  0  0  0  0  0  0  0
  1  2  1  0  0  0  0
  2  3  1  0  0  0  0
  3  4  1  0  0  0  0
  4  5  1  0  0  0  0
  5  6  1  0  0  0  0
  6  7  1  0  0  0  0
  7  8  1  0  0  0  0
  8  9  1  0  0  0  0
  9 10  1  0  0  0  0
 10 11  1  0  0  0  0
 11 12  1  0  0  0  0
 12 13  1  0  0  0  0
  1 14  1  0  0  0  0
  1 15  1  0  0  0  0
  1 16  1  0  0  0  0
  2 17  1  0  0  0  0
  2 18  1  0  0  0  0
  3 19  1  0  0  0  0
  3 20  1  0  0  0  0
  4 21  1  0  0  0  0
  4 22  1  0  0  0  0
  5 23  1  0  0  0  0
  5 24  1  0  0  0  0
  6 25  1  0  0  0  0
  6 26  1  0  0  0  0
  7 27  1  0  0  0  0
  7 28  1  0  0  0  0
  8 29  1  0  0  0  0
  8 30  1  0  0  0  0
  9 31  1  0  0  0  0
  9 32  1  0  0  0  0
 10 33  1  0  0  0  0
 10 34  1  0  0  0  0
 11 35  1  0  0  0  0
 11 36  1  0  0  0  0
 12 37  1  0  0  0  0
 12 38  1  0  0  0  0
 13 39  1  0  0  0  0
 13 40  1  0  0  0  0
 13 41  1  0  0  0  0
M  CHG  1   1   1
M  END
