 xtb: 6.5.1 (fef0646)
          01242317093D

 25 24  0     0  0            999 V2000
   -2.9546    1.7411   -0.6662 N   0  0  0  0  0  0  0  0  0  0  0  0
   -1.8446    2.6136   -0.1799 C   0  0  0  0  0  0  0  0  0  0  0  0
   -0.4741    1.9704   -0.3813 C   0  0  0  0  0  0  0  0  0  0  0  0
   -0.1535    0.9122    0.6771 C   0  0  0  0  0  0  0  0  0  0  0  0
    1.0927    0.1340    0.3705 C   0  0  0  0  0  0  0  0  0  0  0  0
    1.0100   -1.1327   -0.1904 C   0  0  0  0  0  0  0  0  0  0  0  0
    2.1524   -1.8413   -0.5033 C   0  0  0  0  0  0  0  0  0  0  0  0
    3.3943   -1.2890   -0.2617 C   0  0  0  0  0  0  0  0  0  0  0  0
    3.4905   -0.0278    0.2916 C   0  0  0  0  0  0  0  0  0  0  0  0
    2.3463    0.6797    0.6036 C   0  0  0  0  0  0  0  0  0  0  0  0
   -2.5227   -1.7320    0.1707 Cl  0  0  0  0  0  0  0  0  0  0  0  0
   -3.8815    2.1188   -0.4237 H   0  0  0  0  0  0  0  0  0  0  0  0
   -2.8849    0.7911   -0.2712 H   0  0  0  0  0  0  0  0  0  0  0  0
   -2.9154    1.6383   -1.6923 H   0  0  0  0  0  0  0  0  0  0  0  0
   -1.9872    2.8458    0.8821 H   0  0  0  0  0  0  0  0  0  0  0  0
   -1.8966    3.5789   -0.6993 H   0  0  0  0  0  0  0  0  0  0  0  0
    0.3165    2.7312   -0.3804 H   0  0  0  0  0  0  0  0  0  0  0  0
   -0.4321    1.5142   -1.3767 H   0  0  0  0  0  0  0  0  0  0  0  0
   -0.9939    0.2179    0.7764 H   0  0  0  0  0  0  0  0  0  0  0  0
   -0.0572    1.3834    1.6618 H   0  0  0  0  0  0  0  0  0  0  0  0
    0.0380   -1.5601   -0.3725 H   0  0  0  0  0  0  0  0  0  0  0  0
    2.0743   -2.8258   -0.9360 H   0  0  0  0  0  0  0  0  0  0  0  0
    4.2876   -1.8415   -0.5055 H   0  0  0  0  0  0  0  0  0  0  0  0
    4.4597    0.4059    0.4793 H   0  0  0  0  0  0  0  0  0  0  0  0
    2.4183    1.6658    1.0313 H   0  0  0  0  0  0  0  0  0  0  0  0
  1  2  1  0  0  0  0
  2  3  1  0  0  0  0
  3  4  1  0  0  0  0
  4  5  1  0  0  0  0
  5  6  4  0  0  0  0
  6  7  4  0  0  0  0
  7  8  4  0  0  0  0
  8  9  4  0  0  0  0
  5 10  4  0  0  0  0
  9 10  4  0  0  0  0
  1 12  1  0  0  0  0
  1 13  1  0  0  0  0
  1 14  1  0  0  0  0
  2 15  1  0  0  0  0
  2 16  1  0  0  0  0
  3 17  1  0  0  0  0
  3 18  1  0  0  0  0
  4 19  1  0  0  0  0
  4 20  1  0  0  0  0
  6 21  1  0  0  0  0
  7 22  1  0  0  0  0
  8 23  1  0  0  0  0
  9 24  1  0  0  0  0
 10 25  1  0  0  0  0
M  END
