 xtb: 6.5.1 (fef0646)
          01242317093D

 25 24  0     0  0            999 V2000
   -2.0639    0.8404    0.5954 N   0  0  0  0  0  0  0  0  0  0  0  0
   -1.2356    1.0198   -0.6316 C   0  0  0  0  0  0  0  0  0  0  0  0
   -0.2774    2.2027   -0.5298 C   0  0  0  0  0  0  0  0  0  0  0  0
    0.8256    2.0052    0.5161 C   0  0  0  0  0  0  0  0  0  0  0  0
    1.7170    0.8334    0.2197 C   0  0  0  0  0  0  0  0  0  0  0  0
    1.5716   -0.3654    0.9039 C   0  0  0  0  0  0  0  0  0  0  0  0
    2.3743   -1.4488    0.6071 C   0  0  0  0  0  0  0  0  0  0  0  0
    3.3319   -1.3487   -0.3821 C   0  0  0  0  0  0  0  0  0  0  0  0
    3.4838   -0.1640   -1.0738 C   0  0  0  0  0  0  0  0  0  0  0  0
    2.6801    0.9185   -0.7753 C   0  0  0  0  0  0  0  0  0  0  0  0
   -4.2531   -1.8727    0.1610 Cl  0  0  0  0  0  0  0  0  0  0  0  0
   -2.6136    1.6875    0.7968 H   0  0  0  0  0  0  0  0  0  0  0  0
   -1.4761    0.6510    1.4193 H   0  0  0  0  0  0  0  0  0  0  0  0
   -2.7264    0.0493    0.4990 H   0  0  0  0  0  0  0  0  0  0  0  0
   -1.8991    1.1443   -1.4969 H   0  0  0  0  0  0  0  0  0  0  0  0
   -0.6693    0.1022   -0.8292 H   0  0  0  0  0  0  0  0  0  0  0  0
   -0.8503    3.1102   -0.3039 H   0  0  0  0  0  0  0  0  0  0  0  0
    0.1880    2.3875   -1.5059 H   0  0  0  0  0  0  0  0  0  0  0  0
    0.3817    1.8803    1.5092 H   0  0  0  0  0  0  0  0  0  0  0  0
    1.4443    2.9076    0.5914 H   0  0  0  0  0  0  0  0  0  0  0  0
    0.8208   -0.4457    1.6720 H   0  0  0  0  0  0  0  0  0  0  0  0
    2.2517   -2.3741    1.1470 H   0  0  0  0  0  0  0  0  0  0  0  0
    3.9588   -2.1946   -0.6148 H   0  0  0  0  0  0  0  0  0  0  0  0
    4.2292   -0.0840   -1.8487 H   0  0  0  0  0  0  0  0  0  0  0  0
    2.7940    1.8425   -1.3172 H   0  0  0  0  0  0  0  0  0  0  0  0
  1  2  1  0  0  0  0
  2  3  1  0  0  0  0
  3  4  1  0  0  0  0
  4  5  1  0  0  0  0
  5  6  4  0  0  0  0
  6  7  4  0  0  0  0
  7  8  4  0  0  0  0
  8  9  4  0  0  0  0
  5 10  4  0  0  0  0
  9 10  4  0  0  0  0
  1 12  1  0  0  0  0
  1 13  1  0  0  0  0
  1 14  1  0  0  0  0
  2 15  1  0  0  0  0
  2 16  1  0  0  0  0
  3 17  1  0  0  0  0
  3 18  1  0  0  0  0
  4 19  1  0  0  0  0
  4 20  1  0  0  0  0
  6 21  1  0  0  0  0
  7 22  1  0  0  0  0
  8 23  1  0  0  0  0
  9 24  1  0  0  0  0
 10 25  1  0  0  0  0
M  END
