50
 xtb: 6.5.1 (fef0646)
N           -6.73814476410073        1.85090927014651        2.73275478059845
C           -7.72977307705433        0.79160316108313        2.39094262734062
C           -7.92333647105444        0.62361145461993        0.88132111245753
C           -6.74712666978940        0.04117864397755        0.17385471039711
C           -6.80404811565320       -0.77228151431137       -0.91345507736214
C           -5.53368256620025       -1.16315582534188       -1.41636000384348
C           -4.47604493173262       -0.64815037970126       -0.71797440924275
C           -3.08014543139200       -0.86138883151238       -0.99390166866471
C           -2.54997327529310       -1.59908025261259       -2.01813160953717
C           -1.13077944840401       -1.65253734991263       -2.05120772252479
C           -0.43077694702959       -2.39852406487590       -3.13494719541470
C           -0.53285975310280       -0.95993663284516       -1.01044014295693
C            0.86341220796204       -0.80876369842988       -0.65397303173354
C            1.88782626729850       -1.50751248913108       -1.26930868300062
C            3.23325542512747       -1.34287749055450       -0.93181547081223
C            3.65659385916759       -0.47308432460399        0.05433565175667
C            5.06707900051016       -0.31567416475011        0.38597893414951
C            6.12292829784070       -0.24811012883872       -0.49734841901179
C            5.99739143415637       -0.28159691833680       -1.98146085484502
C            7.38436087735261       -0.12811937930075        0.15577782338195
C            7.30512909448285       -0.08494705751695        1.50433572015689
S            5.66880876482338       -0.19485623738891        2.02352601537637
C            2.64303181889483        0.26115746686712        0.76241895679358
N            2.82710854678813        1.13805986264029        1.73073649778041
S            1.36052686076698        1.69755496900248        2.20326462050548
N            0.44384752416443        0.83969687592010        1.14914581644480
C            1.24189421235594        0.09366483664438        0.40836054132254
S           -1.77973475153488       -0.20334901648401       -0.05144157511394
S           -5.08598364559761        0.33570065308629        0.58569272544869
Cl           2.60113125954076        1.80609877234266       -2.55957413462510
H           -7.05731408763187        2.76890162252296        2.39140246601142
H           -5.84042547688242        1.64857088607203        2.27584338416965
H           -6.56958407635152        1.92491962198914        3.74686198724895
H           -8.66966272953568        1.00020085699070        2.88973669145738
H           -7.37642760545043       -0.17303781202389        2.81906439486251
H           -8.16071787806317        1.59089022829367        0.44709219002172
H           -8.79282453353919       -0.01750044575376        0.69458799914969
H           -7.73475302438442       -1.07595033500550       -1.36545920560566
H           -5.41408942322234       -1.79202184207007       -2.28512651375233
H           -3.16190925694997       -2.11861751505251       -2.73986444318231
H           -1.13246063196387       -2.71134834127337       -3.90819614683842
H            0.01823960642916       -3.33042465852742       -2.73708803046682
H            0.33772032305442       -1.80800763010913       -3.60001865330030
H            1.65202859891657       -2.22855868649078       -2.02984587552824
H            3.97361130766442       -1.93897462679267       -1.44013563030432
H            5.04961853365227        0.12305510313429       -2.30771582647184
H            6.07932947109652       -1.31366681238670       -2.35278270945091
H            6.79343706831033        0.29393673286549       -2.45033547494227
H            8.31738725148533       -0.08140680744210       -0.38382359502636
H            8.13580521388722        0.00554024358644        2.17911492759838
