50
 xtb: 6.5.1 (fef0646)
N           -8.73583928834245        0.56182669334853        1.21870970339654
C           -9.02646300685681       -0.54007555901229        0.25776436813825
C           -8.43119411086160       -0.28965732260215       -1.13129885927644
C           -6.94391613512892       -0.38160117523366       -1.18044820068779
C           -6.21820191320198       -0.93117137905794       -2.19441375713759
C           -4.81149411049818       -0.85844593186427       -2.00650053372136
C           -4.43639575088990       -0.24994829359887       -0.83734238275168
C           -3.08429345753435       -0.04753058863574       -0.39062923373103
C           -2.71338874209431        0.50799292537700        0.80354867227994
C           -1.31472053877105        0.57429487680160        1.01860415276541
C           -0.73562964133913        1.19628632750361        2.24115754488993
C           -0.58198380621374        0.03544736275242       -0.02242871074578
C            0.86106564606016       -0.08989422223480       -0.14077989687418
C            1.47087363573378        0.07030151278919       -1.37166997582431
C            2.85409806856367       -0.00651974386827       -1.54778992405854
C            3.72346307877620       -0.26528648513603       -0.50483836439872
C            5.16549648592303       -0.33302713420302       -0.70984339046326
C            5.93086467422668        0.51556956825259       -1.48041378711424
C            5.40933585139002        1.70054959250787       -2.21850157092255
C            7.30954152799750        0.15297857940450       -1.50078172139426
C            7.60449034523216       -0.93508806629689       -0.75430807217399
S            6.18892737046424       -1.56979092956780       -0.01428782394197
C            3.15027091868141       -0.49225664994997        0.79579864792488
N            3.79271565536556       -0.77752346959833        1.91181658940411
S            2.68157948885644       -0.98036748015769        3.10123762019069
N            1.33763761328582       -0.69440063936577        2.21240630135411
C            1.70966094796660       -0.40874566146397        0.98035820002856
S           -1.66407575722318       -0.50292587995344       -1.28585540477174
S           -5.86438945489882        0.28958951608452        0.01874791705577
Cl           2.44790940143796        3.00829907557322        0.50877262049921
H           -7.71886197510544        0.72364069475427        1.26613615445123
H           -9.08498279102732        0.38006674735469        2.15854120379793
H           -9.15829940039992        1.45118274569433        0.88349600740011
H          -10.10046409734694       -0.69408447156497        0.20196345591015
H           -8.60956417131497       -1.47766917912844        0.66736425878380
H           -8.75052868617488        0.68371285831402       -1.49113748647350
H           -8.84442738721472       -1.02426451259706       -1.84129361980900
H           -6.67153340280164       -1.25242021452122       -3.12400945886853
H           -4.09469312518657       -1.12929991917075       -2.77034773278936
H           -3.43496234520596        0.84440265035801        1.53259238145682
H           -0.62993991169104        0.44400805803021        3.04291080579677
H           -1.38225263519288        1.98421624609051        2.62308633081419
H            0.24006692647478        1.61017197439580        2.04737153059059
H            0.84222680552407        0.27504809573087       -2.21880258819559
H            3.25673237499667        0.11022559022717       -2.53659829156188
H            4.53098173776664        2.09617619688630       -1.77388712196426
H            5.13299356817168        1.38341078731436       -3.27591132613748
H            6.16067249348340        2.45477760803638       -2.32723715188687
H            8.04231638307645        0.67869014139511       -2.08934717621156
H            8.58088348422081       -1.36193074853724       -0.62105437193278
