21
 xtb: 6.5.1 (fef0646)
N           -1.09135828558846       -1.18616552446000        0.27310220110161
C           -0.09081236460524       -0.10508093160154        0.02950640007170
C            1.32746806807054       -0.62444738801655        0.21277273093489
C            2.39667879720745        0.43944117663054       -0.02695432427942
C            3.81428851251787       -0.09991125249456        0.16338851201046
C            4.88247533413525        0.95555582821946       -0.07738901429422
Cl          -4.57324084638434        0.34248746575180       -0.25723496243098
H           -1.03173531676187       -1.92330681064553       -0.39550210181291
H           -2.10519955758485       -0.76481291461904        0.12866153106317
H           -1.08774246477161       -1.50810837583882        1.21283783276650
H           -0.28808057728640        0.76270775718133        0.70010428488717
H           -0.22898119436785        0.32864567002657       -0.98727178461808
H            1.45499792307855       -1.47014330754214       -0.46242975853751
H            1.39765969010773       -1.03395349870495        1.22016136489225
H            2.21036949305503        1.28730238747989        0.64545304429746
H            2.26910846457232        0.84913222737048       -1.03737257513063
H            3.94343252067668       -0.96215218940028       -0.50671091421904
H            3.88598917754193       -0.52052194670799        1.17627695028285
H            4.80459634581152        1.34325955314546       -1.09131487298887
H            5.86814069856362        0.54821469837078        0.06520864318057
H            4.74408335540126        1.79122975272040        0.60559423689372
