21
0.0
N           -3.73969  -0.52132   0.64669
C           -3.10280   0.82873   0.57196
C           -2.14642   0.97590  -0.62100
C           -0.76672   0.45936  -0.35776
C           -0.49550  -0.90441  -0.29654
F           -1.48390  -1.78952  -0.40383
C            0.80284  -1.36039  -0.07602
F            1.04423  -2.66983  -0.01367
C            1.83994  -0.45385   0.09427
F            3.08402  -0.89051   0.30396
C            1.57716   0.90825   0.05382
F            2.56525   1.78509   0.23302
C            0.27778   1.35924  -0.16711
F            0.02691   2.66902  -0.17566
H           -4.45491  -0.64118  -0.08551
H           -4.18929  -0.69665   1.55805
H           -3.02327  -1.24181   0.48810
H           -2.55229   1.02875   1.50187
H           -3.89973   1.58604   0.53054
H           -2.05951   2.03281  -0.91166
H           -2.55922   0.45770  -1.49538
