21
2.731
N            2.26992  -0.96846   0.89541
C            1.66220  -0.28857  -0.30190
C            2.41693   1.00901  -0.58688
C            0.16666  -0.08800  -0.14711
C           -0.49922   0.97957  -0.76233
C           -1.87586   1.13704  -0.63970
C           -2.62024   0.22172   0.09212
C           -1.98272  -0.85454   0.69430
C           -0.60591  -1.00783   0.56993
H            2.05540  -0.43750   1.74629
H            3.29090  -1.02359   0.80655
H            1.92498  -1.92785   1.01462
H            1.80311  -0.96459  -1.16176
H            3.49377   0.84345  -0.59867
H            2.20836   1.74953   0.18423
H            2.14846   1.43796  -1.55210
H            0.05418   1.69083  -1.34878
H           -2.36695   1.96905  -1.11737
H           -3.68720   0.34261   0.18704
H           -2.55611  -1.57366   1.25606
H           -0.13339  -1.85620   1.02928
