21
 xtb: 6.5.1 (fef0646)
N            2.26391180288017       -1.04842466794014        0.82418945697397
C            1.66544591620846       -0.26921719331316       -0.31706392191141
C            2.42079581399138        1.05019410899289       -0.50264550926433
C            0.16812672695422       -0.08072097569883       -0.15460201857218
C           -0.50607821755599        0.98560607388445       -0.77204708778062
C           -1.88300270934482        1.14126083433620       -0.63896884938594
C           -2.62242727766487        0.22133343192933        0.09684711111052
C           -1.97806911695309       -0.85147665497180        0.70115576476413
C           -0.59813132187433       -0.99886214543725        0.57764387542728
H            2.00210362392183       -0.52609481883935        1.74978060710390
H            3.29891425039003       -0.99270554861189        0.80989665243150
H            1.97306946734084       -1.98453351726972        0.92737697407062
H            1.80491493502274       -0.93104058856282       -1.18835068378877
H            3.50226291282813        0.84980726778037       -0.58620571740400
H            2.23115928186342        1.74072055042637        0.23871564013562
H            2.15078809747543        1.48453936887170       -1.50751981095361
H            0.05568005721664        1.73844972211533       -1.29152144158548
H           -2.36947993633697        2.00726718596731       -1.05559555059114
H           -3.69279244707127        0.33433093880034        0.18903279454105
H           -2.56252327441482       -1.61571974331804        1.19956388446438
H           -0.13410794392876       -1.88592847631789        0.97802438430965
