20

N          1.04716       -0.05281        0.04843
C          2.52824       -0.05280        0.03964
C          3.03396       -0.33863        1.44485
C          4.56100       -0.34467        1.47321
C          5.09430       -0.62760        2.87520
C          6.61445       -0.62981        2.88760
H          0.67142        0.13808       -0.88976
H          0.67280        0.66655        0.68133
H          0.67079       -0.96107        0.35105
H          2.84530        0.93186       -0.31664
H          2.84329       -0.82139       -0.67252
H          2.65427       -1.30861        1.78881
H          2.65467        0.42044        2.14026
H          4.93719        0.62566        1.12634
H          4.93721       -1.10402        0.77678
H          4.72795       -1.59972        3.22661
H          4.72732        0.13132        3.57574
H          7.00835       -1.39870        2.21568
H          6.98659       -0.83301        3.89474
H          7.00791        0.33993        2.56685
