 xtb: 6.5.1 (fef0646)
          01242314563D

 27 27  0     0  0            999 V2000
    3.3904    0.1980   -1.1743 N   0  0  0  0  0  0  0  0  0  0  0  0
    2.5219    0.0541    0.0180 C   0  0  0  0  0  0  0  0  0  0  0  0
    2.9113    1.0328    1.1282 C   0  0  0  0  0  0  0  0  0  0  0  0
    2.1456    0.6735    2.4046 C   0  0  0  0  0  0  0  0  0  0  0  0
    2.5151    1.6153    3.5464 C   0  0  0  0  0  0  0  0  0  0  0  0
    2.2044    3.0718    3.1603 C   0  0  0  0  0  0  0  0  0  0  0  0
    2.6440    3.9538    4.3069 C   0  0  0  0  0  0  0  0  0  0  0  0
    1.7146    4.2958    5.1998 O   0  0  0  0  0  0  0  0  0  0  0  0
    3.7879    4.3188    4.4625 O   0  0  0  0  0  0  0  0  0  0  0  0
    2.9634    3.4351    1.8817 C   0  0  0  0  0  0  0  0  0  0  0  0
    2.6053    2.4833    0.7431 C   0  0  0  0  0  0  0  0  0  0  0  0
    3.1257   -0.4825   -1.8952 H   0  0  0  0  0  0  0  0  0  0  0  0
    4.3729    0.0440   -0.9187 H   0  0  0  0  0  0  0  0  0  0  0  0
    3.3010    1.1417   -1.5674 H   0  0  0  0  0  0  0  0  0  0  0  0
    2.6079   -0.9649    0.3947 H   0  0  0  0  0  0  0  0  0  0  0  0
    1.4858    0.2283   -0.2727 H   0  0  0  0  0  0  0  0  0  0  0  0
    3.9803    0.9433    1.3424 H   0  0  0  0  0  0  0  0  0  0  0  0
    2.3761   -0.3482    2.7076 H   0  0  0  0  0  0  0  0  0  0  0  0
    1.0721    0.7371    2.2201 H   0  0  0  0  0  0  0  0  0  0  0  0
    3.5811    1.5374    3.7716 H   0  0  0  0  0  0  0  0  0  0  0  0
    1.9676    1.3404    4.4496 H   0  0  0  0  0  0  0  0  0  0  0  0
    1.1287    3.1810    2.9944 H   0  0  0  0  0  0  0  0  0  0  0  0
    0.8189    3.9757    4.9870 H   0  0  0  0  0  0  0  0  0  0  0  0
    4.0334    3.3966    2.0959 H   0  0  0  0  0  0  0  0  0  0  0  0
    2.7264    4.4632    1.6005 H   0  0  0  0  0  0  0  0  0  0  0  0
    3.1772    2.7931   -0.1311 H   0  0  0  0  0  0  0  0  0  0  0  0
    1.5425    2.5870    0.5173 H   0  0  0  0  0  0  0  0  0  0  0  0
  1  2  1  0  0  0  0
  2  3  1  0  0  0  0
  3  4  1  0  0  0  0
  4  5  1  0  0  0  0
  5  6  1  0  0  0  0
  6  7  1  0  0  0  0
  7  8  1  0  0  0  0
  7  9  2  0  0  0  0
  6 10  1  0  0  0  0
  3 11  1  0  0  0  0
 10 11  1  0  0  0  0
  1 12  1  0  0  0  0
  1 13  1  0  0  0  0
  1 14  1  0  0  0  0
  2 15  1  0  0  0  0
  2 16  1  0  0  0  0
  3 17  1  0  0  0  0
  4 18  1  0  0  0  0
  4 19  1  0  0  0  0
  5 20  1  0  0  0  0
  5 21  1  0  0  0  0
  6 22  1  0  0  0  0
  8 23  1  0  0  0  0
 10 24  1  0  0  0  0
 10 25  1  0  0  0  0
 11 26  1  0  0  0  0
 11 27  1  0  0  0  0
M  CHG  1   1   1
M  END
