 xtb: 6.5.1 (fef0646)
          01232318373D

 22 22  0     0  0            999 V2000
    1.7182    0.9602   -0.7120 N   0  0  0  0  0  0  0  0  0  0  0  0
    2.5978   -0.0745   -0.0288 C   0  0  0  0  0  0  0  0  0  0  0  0
    3.0553    0.4467    1.2894 C   0  0  0  0  0  0  0  0  0  0  0  0
    4.3055    0.8728    1.5008 C   0  0  0  0  0  0  0  0  0  0  0  0
    4.8609    1.3894    2.7342 C   0  0  0  0  0  0  0  0  0  0  0  0
    4.1609    1.3942    3.9452 C   0  0  0  0  0  0  0  0  0  0  0  0
    4.7458    1.8965    5.0900 C   0  0  0  0  0  0  0  0  0  0  0  0
    6.0354    2.4061    5.0525 C   0  0  0  0  0  0  0  0  0  0  0  0
    6.7425    2.4070    3.8606 C   0  0  0  0  0  0  0  0  0  0  0  0
    6.1632    1.9009    2.7141 C   0  0  0  0  0  0  0  0  0  0  0  0
    1.3914    0.6347   -1.6300 H   0  0  0  0  0  0  0  0  0  0  0  0
    2.2506    1.8317   -0.8305 H   0  0  0  0  0  0  0  0  0  0  0  0
    0.9038    1.1630   -0.1179 H   0  0  0  0  0  0  0  0  0  0  0  0
    3.4427   -0.2774   -0.6877 H   0  0  0  0  0  0  0  0  0  0  0  0
    2.0010   -0.9810    0.0842 H   0  0  0  0  0  0  0  0  0  0  0  0
    2.3179    0.4552    2.0762 H   0  0  0  0  0  0  0  0  0  0  0  0
    5.0079    0.8341    0.6750 H   0  0  0  0  0  0  0  0  0  0  0  0
    3.1625    0.9890    3.9979 H   0  0  0  0  0  0  0  0  0  0  0  0
    4.1970    1.8886    6.0192 H   0  0  0  0  0  0  0  0  0  0  0  0
    6.4878    2.7967    5.9507 H   0  0  0  0  0  0  0  0  0  0  0  0
    7.7471    2.7990    3.8270 H   0  0  0  0  0  0  0  0  0  0  0  0
    6.7202    1.9005    1.7880 H   0  0  0  0  0  0  0  0  0  0  0  0
  1  2  1  0  0  0  0
  2  3  1  0  0  0  0
  3  4  2  0  0  0  0
  4  5  1  0  0  0  0
  5  6  4  0  0  0  0
  6  7  4  0  0  0  0
  7  8  4  0  0  0  0
  8  9  4  0  0  0  0
  5 10  4  0  0  0  0
  9 10  4  0  0  0  0
  1 11  1  0  0  0  0
  1 12  1  0  0  0  0
  1 13  1  0  0  0  0
  2 14  1  0  0  0  0
  2 15  1  0  0  0  0
  3 16  1  0  0  0  0
  4 17  1  0  0  0  0
  6 18  1  0  0  0  0
  7 19  1  0  0  0  0
  8 20  1  0  0  0  0
  9 21  1  0  0  0  0
 10 22  1  0  0  0  0
M  CHG  1   1   1
M  END
