  19

 N         -1.7162670573       -1.7037921928       -0.2825778941
 C         -0.4083832706       -1.5646519545        0.3455322085
 C          0.4812742674       -0.5564134447       -0.3727876881
 C          1.8438109041       -0.3808144383        0.2934674174
 C          2.7310250866        0.6285222048       -0.4267329451
 O          4.0098539287        0.7597657567        0.1560728169
 Cl        -2.9007505842        1.3751151578        0.1886510805
 H         -2.2576958795       -2.4345655909        0.1678873282
 H         -1.6008719401       -1.9911943903       -1.2477493123
 H         -2.4400828259        0.1338770755       -0.0014480999
 H          0.0973654298       -2.5383240743        0.3939549238
 H         -0.5495517180       -1.2508237632        1.3867698140
 H         -0.0315781356        0.4102090858       -0.4258290123
 H          0.6153242726       -0.8649537736       -1.4156660401
 H          2.3627981904       -1.3442588655        0.3422172409
 H          1.7111950616       -0.0725078292        1.3363362113
 H          2.2552012643        1.6171243966       -0.4619124827
 H          2.8863083704        0.3267314316       -1.4689384383
 H          3.9277853026        0.9964781753        1.1061846201
          19
        -26.20347861
 N         -1.3218092891        1.2878633076        0.0048697760
 C         -0.3158760285        0.2369231533       -0.0178596427
 C          1.1117981207        0.7698411847        0.0100408819
 C          2.1621229407       -0.3383690749       -0.0105811455
 C          3.5897090706        0.1962714741        0.0197477315
 O          4.5661338132       -0.8204712106       -0.0522322402
 Cl        -4.1035692889       -0.5507121060        0.0006957462
 H         -1.1872052851        1.9047537079       -0.7886841522
 H         -1.1895344894        1.8653433259        0.8276782507
 H         -2.9914811579        0.1929465754        0.0014926928
 H         -0.4697222388       -0.3845043648       -0.9092260999
 H         -0.4840994114       -0.4349666447        0.8324002792
 H          1.2516953176        1.3951911170        0.8986762067
 H          1.2677821991        1.4434112074       -0.8401207743
 H          2.0310294207       -0.9611996707       -0.9021577942
 H          2.0066543909       -1.0148835795        0.8370439378
 H          3.7679014157        0.7941285725        0.9230027007
 H          3.7659159778        0.8666824542       -0.8293421710
 H          4.4322269725       -1.4728197468        0.6701616122
          19
        -26.20405394
 N         -1.0980018498        1.1517936023       -0.2934451890
 C         -0.2285800349       -0.0072006971       -0.1606536361
 C          1.2496689773        0.3288182447       -0.3199483270
 C          2.1586723761       -0.8862050290       -0.1767437262
 C          3.6297933712       -0.5062176489       -0.2919253885
 O          4.0263022521        0.4369982355        0.6781178172
 Cl        -4.0655791329       -0.2903829459        0.1833361548
 H         -0.9528225009        1.5833256390       -1.1995821185
 H         -0.8335795824        1.8529402789        0.3894282330
 H         -2.8783647098        0.2949663997       -0.0086669533
 H         -0.5254683753       -0.7625435342       -0.8993882552
 H         -0.4061308177       -0.4752528337        0.8151086126
 H          1.5362292733        1.0880364158        0.4161654688
 H          1.4164097055        0.8028069811       -1.2937937119
 H          1.8954278708       -1.6394474723       -0.9287454063
 H          1.9803519108       -1.3632795689        0.7933739520
 H          3.8309310803       -0.0527348430       -1.2702172143
 H          4.2845302006       -1.3839102887       -0.2172107055
 H          3.8565517042        0.0866931650        1.5805285373
