20
0.0
N           -1.76122  -1.46530   0.15180
C           -1.96748  -0.31576  -0.77278
C           -1.82868   1.05084  -0.09657
C           -0.52477   1.30055   0.68171
C            0.78214   1.20919  -0.13869
C            1.49593  -0.10454   0.03590
O            2.71460  -0.20532  -0.52127
O            0.97690  -1.00622   0.64803
H           -1.93008  -2.37176  -0.30844
H           -2.36738  -1.41001   0.98238
H           -0.77053  -1.44643   0.45689
H           -2.95937  -0.40792  -1.23607
H           -1.25060  -0.39843  -1.59978
H           -2.67814   1.18426   0.58610
H           -1.94699   1.84029  -0.84986
H           -0.45193   0.59640   1.52058
H           -0.58518   2.29020   1.15706
H            1.48462   1.99842   0.15757
H            0.58782   1.37857  -1.20232
H            3.08885  -1.08079  -0.32467
