 xtb: 6.5.1 (fef0646)
          01242316523D

 15 14  0     0  0            999 V2000
    2.9927   -0.6623    1.1762 N   0  0  0  0  0  0  0  0  0  0  0  0
    2.5226    0.0990   -0.0020 C   0  0  0  0  0  0  0  0  0  0  0  0
    3.0885    1.5069    0.0317 C   0  0  0  0  0  0  0  0  0  0  0  0
    4.9377    1.4143   -0.0008 S   0  0  0  0  0  0  0  0  0  0  0  0
    5.3290    3.1684    0.0709 C   0  0  0  0  0  0  0  0  0  0  0  0
    2.7036   -1.6447    1.1236 H   0  0  0  0  0  0  0  0  0  0  0  0
    2.6327   -0.2497    2.0440 H   0  0  0  0  0  0  0  0  0  0  0  0
    4.0208   -0.6112    1.2015 H   0  0  0  0  0  0  0  0  0  0  0  0
    1.4333    0.1426   -0.0076 H   0  0  0  0  0  0  0  0  0  0  0  0
    2.8655   -0.4019   -0.9072 H   0  0  0  0  0  0  0  0  0  0  0  0
    2.8028    2.0416    0.9363 H   0  0  0  0  0  0  0  0  0  0  0  0
    2.7674    2.0724   -0.8404 H   0  0  0  0  0  0  0  0  0  0  0  0
    6.4121    3.2483    0.0935 H   0  0  0  0  0  0  0  0  0  0  0  0
    4.9061    3.5997    0.9736 H   0  0  0  0  0  0  0  0  0  0  0  0
    4.9400    3.6632   -0.8156 H   0  0  0  0  0  0  0  0  0  0  0  0
  1  2  1  0  0  0  0
  2  3  1  0  0  0  0
  3  4  1  0  0  0  0
  4  5  1  0  0  0  0
  1  6  1  0  0  0  0
  1  7  1  0  0  0  0
  1  8  1  0  0  0  0
  2  9  1  0  0  0  0
  2 10  1  0  0  0  0
  3 11  1  0  0  0  0
  3 12  1  0  0  0  0
  5 13  1  0  0  0  0
  5 14  1  0  0  0  0
  5 15  1  0  0  0  0
M  CHG  1   1   1
M  END
