 xtb: 6.5.1 (fef0646)
          01242316043D

 20 19  0     0  0            999 V2000
    0.8979    0.0259   -0.1102 N   0  0  0  0  0  0  0  0  0  0  0  0
    2.3674   -0.1593   -0.0260 C   0  0  0  0  0  0  0  0  0  0  0  0
    2.9867   -0.1174   -1.4206 C   0  0  0  0  0  0  0  0  0  0  0  0
    4.5141   -0.0912   -1.3744 C   0  0  0  0  0  0  0  0  0  0  0  0
    5.1218   -1.3839   -0.8282 C   0  0  0  0  0  0  0  0  0  0  0  0
    6.6214   -1.4003   -0.9977 C   0  0  0  0  0  0  0  0  0  0  0  0
    7.2475   -2.4979   -0.5663 O   0  0  0  0  0  0  0  0  0  0  0  0
    7.2585   -0.4967   -1.4885 O   0  0  0  0  0  0  0  0  0  0  0  0
    0.4721   -0.0057    0.8229 H   0  0  0  0  0  0  0  0  0  0  0  0
    0.4798   -0.7121   -0.6892 H   0  0  0  0  0  0  0  0  0  0  0  0
    0.6799    0.9327   -0.5398 H   0  0  0  0  0  0  0  0  0  0  0  0
    2.5715   -1.1160    0.4521 H   0  0  0  0  0  0  0  0  0  0  0  0
    2.7934    0.6362    0.5855 H   0  0  0  0  0  0  0  0  0  0  0  0
    2.6609    0.7852   -1.9381 H   0  0  0  0  0  0  0  0  0  0  0  0
    2.6668   -0.9800   -2.0057 H   0  0  0  0  0  0  0  0  0  0  0  0
    4.8636    0.7482   -0.7715 H   0  0  0  0  0  0  0  0  0  0  0  0
    4.9037    0.0663   -2.3817 H   0  0  0  0  0  0  0  0  0  0  0  0
    4.7150   -2.2460   -1.3622 H   0  0  0  0  0  0  0  0  0  0  0  0
    4.9105   -1.4972    0.2364 H   0  0  0  0  0  0  0  0  0  0  0  0
    6.6539   -3.1748   -0.1921 H   0  0  0  0  0  0  0  0  0  0  0  0
  1  2  1  0  0  0  0
  2  3  1  0  0  0  0
  3  4  1  0  0  0  0
  4  5  1  0  0  0  0
  5  6  1  0  0  0  0
  6  7  1  0  0  0  0
  6  8  2  0  0  0  0
  1  9  1  0  0  0  0
  1 10  1  0  0  0  0
  1 11  1  0  0  0  0
  2 12  1  0  0  0  0
  2 13  1  0  0  0  0
  3 14  1  0  0  0  0
  3 15  1  0  0  0  0
  4 16  1  0  0  0  0
  4 17  1  0  0  0  0
  5 18  1  0  0  0  0
  5 19  1  0  0  0  0
  7 20  1  0  0  0  0
M  CHG  1   1   1
M  END
