18
0.0
N           -3.03498  -1.80464  -0.51584
C           -1.57981  -2.12903  -0.54348
C           -0.88397  -1.84958   0.78519
C           -0.93139  -0.38194   1.21835
C           -0.25174   0.56476   0.24164
I            1.82386   0.19675  -0.09737
Cl          -3.59950   1.65796  -0.08186
H           -3.50643  -2.30561   0.24842
H           -3.50212  -2.06033  -1.39648
H           -3.19055  -0.79338  -0.36580
H           -1.09448  -1.56472  -1.34769
H           -1.45236  -3.18401  -0.81709
H            0.16333  -2.17079   0.72734
H           -1.33567  -2.47820   1.56231
H           -0.45515  -0.27441   2.20237
H           -1.97496  -0.07728   1.37129
H           -0.31424   1.60106   0.58253
H           -0.72936   0.52886  -0.73877
