16
 xtb: 6.5.1 (fef0646)
N           -1.24284252723575        1.90159144055519        0.58743631695527
C           -0.09506488169344        1.81697137816878       -0.35528139751857
C            0.71603386711155        0.58954582498935       -0.15675456434762
C            0.23702359174436       -0.67927005391777       -0.10347538283866
C            1.25291523263900       -1.66235759537886        0.09266204722715
C            2.49494432810399       -1.13443704214752        0.18430871046578
S            2.45636434354470        0.58151756310837        0.00970639563181
Cl          -3.27906918625882       -1.09326117617458       -0.19780831532296
H           -1.82777521549488        2.71785758032943        0.44951453070972
H           -0.94707245823131        1.81669999290810        1.54568292593829
H           -1.89966874082866        1.04888992310414        0.41853490199340
H            0.51370656476488        2.68279807521728       -0.24201087765658
H           -0.47317303393379        1.82608059395126       -1.40714907025011
H           -0.80005999051881       -0.94194588167790       -0.25484143062036
H            1.06808100960440       -2.73176751394989        0.11666834580755
H            3.40741805908763       -1.68257072451686        0.35145199012792
