17
0.052
N           -1.98428  -1.09216   0.09985
C           -1.92809   0.36280   0.44852
C           -0.99262   1.15519  -0.48176
C            0.47757   1.21150  -0.02598
C            1.21957  -0.10069  -0.05084
O            2.45559  -0.07182   0.47127
O            0.73049  -1.10014  -0.51351
H           -2.53744  -1.25062  -0.74742
H           -2.36567  -1.66439   0.85940
H           -1.01334  -1.37713  -0.09777
H           -1.59539   0.48009   1.48776
H           -2.95039   0.76454   0.41797
H           -1.37023   2.18146  -0.58923
H           -1.03601   0.71975  -1.48707
H            0.53823   1.61815   0.98938
H            1.03739   1.91420  -0.65502
H            2.87352  -0.93156   0.41629
