  26

 N          0.9892100000        0.2282000000       -0.3375000000
 C          2.4572300000        0.2574800000       -0.2445700000
 C          2.9923700000        1.6598200000       -0.5183600000
 C          4.4845100000        1.6741000000       -0.3834800000
 C          5.2337400000        1.9070200000        0.7495600000
 C          6.6308100000        1.7496200000        0.5097100000
 C          6.9160500000        1.4190900000       -0.8033700000
 C          8.2116600000        1.1554100000       -1.3872300000
 C          8.6203300000        1.3883900000       -2.6884500000
 C          9.9663400000        0.9807600000       -2.9247800000
 C         10.5474200000        0.4457500000       -1.8008200000
 S          9.4813800000        0.4498800000       -0.4679600000
 S          5.4760800000        1.3242100000       -1.7316000000
 Cl         0.1890000000       -2.0899900000        1.1844800000
 H          0.6887300000       -0.7175600000        0.0464700000
 H          0.5834200000        0.2673300000       -1.2738800000
 H          0.4990600000        0.8463300000        0.3151500000
 H          2.8361600000       -0.4779700000       -0.9616100000
 H          2.7201800000       -0.0664200000        0.7675900000
 H          2.5582300000        2.3692500000        0.1979100000
 H          2.6872500000        1.9993700000       -1.5155200000
 H          4.8108400000        2.1516500000        1.7173800000
 H          7.3881500000        1.8703200000        1.2753300000
 H          7.9880200000        1.8379000000       -3.4445000000
 H         10.4787500000        1.0730100000       -3.8774000000
 H         11.5499500000        0.0506200000       -1.6952200000
