11
0.0
N           -1.45124   0.51689  -0.10576
C           -0.68379  -0.71574   0.23726
C            0.75182  -0.60635  -0.25579
F            1.26680   0.56239   0.12238
H           -0.93856   1.33079   0.24220
H           -2.38507   0.50398   0.31136
H           -1.54406   0.60799  -1.11940
H           -1.18599  -1.60324  -0.17564
H           -0.67950  -0.82866   1.33133
H            0.81146  -0.64012  -1.35273
H            1.40027  -1.39957   0.14667
