 xtb: 6.5.1 (fef0646)
          01242315533D

 28 27  0     0  0            999 V2000
    2.5711    2.3073   -0.9477 N   0  0  0  0  0  0  0  0  0  0  0  0
    2.3458    2.4205    0.5085 C   0  0  0  0  0  0  0  0  0  0  0  0
    2.9500    1.2240    1.2323 C   0  0  0  0  0  0  0  0  0  0  0  0
    4.4832    1.1962    1.2599 C   0  0  0  0  0  0  0  0  0  0  0  0
    4.9603   -0.1635    1.7772 C   0  0  0  0  0  0  0  0  0  0  0  0
    6.4844   -0.2412    1.8046 C   0  0  0  0  0  0  0  0  0  0  0  0
    7.0616    0.8742    2.6711 C   0  0  0  0  0  0  0  0  0  0  0  0
    6.5935    2.2331    2.1607 C   0  0  0  0  0  0  0  0  0  0  0  0
    5.0684    2.3038    2.1392 C   0  0  0  0  0  0  0  0  0  0  0  0
    1.4829   -0.3610   -1.9898 Cl  0  0  0  0  0  0  0  0  0  0  0  0
    2.1163    3.0657   -1.4593 H   0  0  0  0  0  0  0  0  0  0  0  0
    2.1785    1.3977   -1.3008 H   0  0  0  0  0  0  0  0  0  0  0  0
    3.5716    2.2996   -1.1584 H   0  0  0  0  0  0  0  0  0  0  0  0
    1.2712    2.4313    0.6860 H   0  0  0  0  0  0  0  0  0  0  0  0
    2.7771    3.3539    0.8695 H   0  0  0  0  0  0  0  0  0  0  0  0
    2.5871    0.3199    0.7384 H   0  0  0  0  0  0  0  0  0  0  0  0
    2.5818    1.2078    2.2583 H   0  0  0  0  0  0  0  0  0  0  0  0
    4.8749    1.3078    0.2439 H   0  0  0  0  0  0  0  0  0  0  0  0
    4.5625   -0.9564    1.1391 H   0  0  0  0  0  0  0  0  0  0  0  0
    4.5724   -0.3247    2.7859 H   0  0  0  0  0  0  0  0  0  0  0  0
    6.8713   -0.1483    0.7869 H   0  0  0  0  0  0  0  0  0  0  0  0
    6.7981   -1.2141    2.1895 H   0  0  0  0  0  0  0  0  0  0  0  0
    8.1525    0.8254    2.6631 H   0  0  0  0  0  0  0  0  0  0  0  0
    6.7288    0.7384    3.7028 H   0  0  0  0  0  0  0  0  0  0  0  0
    6.9816    2.3885    1.1514 H   0  0  0  0  0  0  0  0  0  0  0  0
    6.9924    3.0248    2.7979 H   0  0  0  0  0  0  0  0  0  0  0  0
    4.7659    3.2865    1.7771 H   0  0  0  0  0  0  0  0  0  0  0  0
    4.6896    2.1895    3.1570 H   0  0  0  0  0  0  0  0  0  0  0  0
  1  2  1  0  0  0  0
  2  3  1  0  0  0  0
  3  4  1  0  0  0  0
  4  5  1  0  0  0  0
  5  6  1  0  0  0  0
  6  7  1  0  0  0  0
  7  8  1  0  0  0  0
  4  9  1  0  0  0  0
  8  9  1  0  0  0  0
  1 11  1  0  0  0  0
  1 12  1  0  0  0  0
  1 13  1  0  0  0  0
  2 14  1  0  0  0  0
  2 15  1  0  0  0  0
  3 16  1  0  0  0  0
  3 17  1  0  0  0  0
  4 18  1  0  0  0  0
  5 19  1  0  0  0  0
  5 20  1  0  0  0  0
  6 21  1  0  0  0  0
  6 22  1  0  0  0  0
  7 23  1  0  0  0  0
  7 24  1  0  0  0  0
  8 25  1  0  0  0  0
  8 26  1  0  0  0  0
  9 27  1  0  0  0  0
  9 28  1  0  0  0  0
M  END
