18
 xtb: 6.5.1 (fef0646)
N           -0.32675447308458       -1.08317496230209        0.30425772619823
C            0.54347394769172        0.09204861529103        0.00335519334383
C            2.02083232793213       -0.23162493798326        0.18597538670816
C            2.93730309404547        0.95434802126032       -0.11883174066188
C            4.41054178743439        0.61847462564294        0.06090141389158
Cl          -3.97360097617720       -0.05229162854674       -0.20691615989293
H           -0.17346230295369       -1.84135485260456       -0.32593890070578
H           -1.38523686123623       -0.80641957719511        0.16299431311772
H           -0.26481557632606       -1.36886175000166        1.26209363302926
H            0.23760736916608        0.95907408412765        0.64300529958794
H            0.33125432248711        0.46430317030619       -1.02590007934496
H            2.24042520320927       -1.07808197359019       -0.45857826645603
H            2.14843176541409       -0.58175607237596        1.20559320995878
H            2.64014520870460        1.79648294874430        0.52599548900152
H            2.72712425052965        1.30275280617733       -1.14117229974200
H            5.03258565267009        1.44472665499800       -0.15355778716173
H            4.67215997366874       -0.22080730254665       -0.59715610730678
H            4.58444610776058        0.27582128401604        1.08490621591101
