 xtb: 6.5.1 (fef0646)
          01242317093D

 18 16  0     0  0            999 V2000
   -0.3662   -1.6799   -0.6644 N   0  0  0  0  0  0  0  0  0  0  0  0
    0.6268   -1.7225    0.4490 C   0  0  0  0  0  0  0  0  0  0  0  0
    1.2569   -0.3607    0.7275 C   0  0  0  0  0  0  0  0  0  0  0  0
    2.1212    0.1563   -0.4227 C   0  0  0  0  0  0  0  0  0  0  0  0
    2.7686    1.4984   -0.1130 C   0  0  0  0  0  0  0  0  0  0  0  0
   -2.5834    0.9330    0.0665 Cl  0  0  0  0  0  0  0  0  0  0  0  0
    0.0844   -1.4464   -1.5596 H   0  0  0  0  0  0  0  0  0  0  0  0
   -1.0798   -0.9534   -0.4819 H   0  0  0  0  0  0  0  0  0  0  0  0
   -0.8534   -2.5793   -0.7854 H   0  0  0  0  0  0  0  0  0  0  0  0
    1.4103   -2.4534    0.2168 H   0  0  0  0  0  0  0  0  0  0  0  0
    0.1349   -2.0996    1.3548 H   0  0  0  0  0  0  0  0  0  0  0  0
    1.8639   -0.4056    1.6408 H   0  0  0  0  0  0  0  0  0  0  0  0
    0.4672    0.3684    0.9447 H   0  0  0  0  0  0  0  0  0  0  0  0
    1.5132    0.2368   -1.3323 H   0  0  0  0  0  0  0  0  0  0  0  0
    2.8913   -0.5889   -0.6609 H   0  0  0  0  0  0  0  0  0  0  0  0
    3.4095    1.4343    0.7684 H   0  0  0  0  0  0  0  0  0  0  0  0
    2.0158    2.2618    0.0924 H   0  0  0  0  0  0  0  0  0  0  0  0
    3.3840    1.8589   -0.9403 H   0  0  0  0  0  0  0  0  0  0  0  0
  1  2  1  0  0  0  0
  2  3  1  0  0  0  0
  3  4  1  0  0  0  0
  4  5  1  0  0  0  0
  1  7  1  0  0  0  0
  1  8  1  0  0  0  0
  1  9  1  0  0  0  0
  2 10  1  0  0  0  0
  2 11  1  0  0  0  0
  3 12  1  0  0  0  0
  3 13  1  0  0  0  0
  4 14  1  0  0  0  0
  4 15  1  0  0  0  0
  5 16  1  0  0  0  0
  5 17  1  0  0  0  0
  5 18  1  0  0  0  0
M  END
