21
0.547
N           -1.54302  -1.81548   0.32489
C           -0.18265  -1.86089  -0.28700
C            0.74747  -0.80491   0.29831
C            2.13923  -0.81695  -0.33528
C            3.09873   0.21015   0.27382
C            2.68083   1.65131   0.01854
Cl          -2.69341   1.46624  -0.14321
H           -2.18306  -2.50933  -0.09296
H           -1.96072  -0.88099   0.19742
H           -1.49730  -1.99408   1.33695
H           -0.26019  -1.72213  -1.37200
H            0.25403  -2.85763  -0.15248
H            0.83294  -0.95049   1.38140
H            0.28997   0.18368   0.17999
H            2.04980  -0.63968  -1.41380
H            2.56241  -1.82574  -0.24601
H            4.11157   0.04725  -0.11983
H            3.18163   0.03062   1.35363
H            1.71728   1.87822   0.47758
H            2.58342   1.85042  -1.05026
H            3.40448   2.36472   0.41950
