 xtb: 6.5.1 (fef0646)
          02032320433D

 21 19  0     0  0            999 V2000
   -0.7551   -0.8074   -0.5016 N   0  0  0  0  0  0  0  0  0  0  0  0
    0.1450   -0.6252    0.6737 C   0  0  0  0  0  0  0  0  0  0  0  0
    1.4703   -1.3681    0.5265 C   0  0  0  0  0  0  0  0  0  0  0  0
    2.3155   -0.9070   -0.6641 C   0  0  0  0  0  0  0  0  0  0  0  0
    2.7098    0.5728   -0.6234 C   0  0  0  0  0  0  0  0  0  0  0  0
    3.5692    0.9356    0.5789 C   0  0  0  0  0  0  0  0  0  0  0  0
   -3.7797    0.9132    0.0291 Cl  0  0  0  0  0  0  0  0  0  0  0  0
   -0.9497   -1.8077   -0.6663 H   0  0  0  0  0  0  0  0  0  0  0  0
   -0.3308   -0.4296   -1.3601 H   0  0  0  0  0  0  0  0  0  0  0  0
   -1.6607   -0.3280   -0.3684 H   0  0  0  0  0  0  0  0  0  0  0  0
   -0.3747   -0.9617    1.5799 H   0  0  0  0  0  0  0  0  0  0  0  0
    0.3293    0.4435    0.8322 H   0  0  0  0  0  0  0  0  0  0  0  0
    1.2649   -2.4423    0.4365 H   0  0  0  0  0  0  0  0  0  0  0  0
    2.0560   -1.2693    1.4488 H   0  0  0  0  0  0  0  0  0  0  0  0
    1.7755   -1.1210   -1.5946 H   0  0  0  0  0  0  0  0  0  0  0  0
    3.2280   -1.5145   -0.7228 H   0  0  0  0  0  0  0  0  0  0  0  0
    1.8064    1.1953   -0.6387 H   0  0  0  0  0  0  0  0  0  0  0  0
    3.2435    0.8355   -1.5474 H   0  0  0  0  0  0  0  0  0  0  0  0
    3.8808    1.9825    0.5588 H   0  0  0  0  0  0  0  0  0  0  0  0
    4.4737    0.3259    0.6158 H   0  0  0  0  0  0  0  0  0  0  0  0
    3.0349    0.7770    1.5170 H   0  0  0  0  0  0  0  0  0  0  0  0
  1  2  1  0  0  0  0
  2  3  1  0  0  0  0
  3  4  1  0  0  0  0
  4  5  1  0  0  0  0
  5  6  1  0  0  0  0
  1  8  1  0  0  0  0
  1  9  1  0  0  0  0
  1 10  1  0  0  0  0
  2 11  1  0  0  0  0
  2 12  1  0  0  0  0
  3 13  1  0  0  0  0
  3 14  1  0  0  0  0
  4 15  1  0  0  0  0
  4 16  1  0  0  0  0
  5 17  1  0  0  0  0
  5 18  1  0  0  0  0
  6 19  1  0  0  0  0
  6 20  1  0  0  0  0
  6 21  1  0  0  0  0
M  END
