36
2.801
N           -4.47799  -0.16474   0.70832
C           -4.56487   0.49211  -0.62344
C           -3.71993   1.76149  -0.68922
C           -2.26363   1.49446  -0.43990
C           -1.70519   1.70533   0.81326
C           -0.37830   1.41570   1.05224
C            0.43850   0.90252   0.04465
C            1.83889   0.60732   0.33283
C            2.76966   0.29964  -0.58192
C            4.17051   0.00534  -0.29446
C            5.08156  -0.09876  -1.34753
C            6.41206  -0.37550  -1.11087
C            6.86228  -0.55741   0.18196
C            5.97653  -0.46351   1.23785
C            4.64506  -0.18620   1.00476
C           -0.13168   0.68214  -1.20940
C           -1.46033   0.97205  -1.44393
Cl          -6.34690  -3.09604   0.80699
H           -4.81387   0.46474   1.45463
H           -3.50114  -0.40933   0.93243
H           -5.03954  -1.03793   0.75315
H           -5.61379   0.71530  -0.85632
H           -4.23206  -0.21114  -1.39655
H           -4.08490   2.48494   0.04877
H           -3.83396   2.25232  -1.66371
H           -2.32326   2.09605   1.60493
H            0.04199   1.58763   2.02971
H            2.13161   0.66834   1.36621
H            2.48695   0.28428  -1.61987
H            4.73293   0.04425  -2.35727
H            7.10212  -0.44967  -1.93686
H            7.90309  -0.77388   0.36669
H            6.32697  -0.60920   2.24766
H            3.96357  -0.12905   1.83637
H            0.46623   0.26633  -2.00237
H           -1.89033   0.78820  -2.41527
