12

N          1.24580       -0.34671        0.20997
C          2.70845       -0.32345        0.14369
C          3.18168       -1.28529       -0.92260
Cl        -0.06453        1.91879       -0.86576
H          0.87738        0.37543        0.85332
H          0.76275       -1.22879        0.36537
H          0.83501        0.10456       -0.65034
H          3.08236       -0.60576        1.13343
H          3.01578        0.70165       -0.07998
H          2.87067       -2.31063       -0.69672
H          4.27340       -1.26857       -0.98650
H          2.78092       -1.01550       -1.90532
