  22

 N          0.9311400000        0.2638000000       -0.2728800000
 C          2.4006600000        0.2382000000       -0.3320400000
 C          2.9834200000        1.3356400000        0.5567900000
 C          4.4937200000        1.3086000000        0.5929900000
 C          5.2472000000        1.4999600000       -0.5738800000
 C          6.6435200000        1.4814800000       -0.5248000000
 C          7.2917600000        1.2869300000        0.6928600000
 Br         9.1807600000        1.2797500000        0.7579200000
 C          6.5582900000        1.1042100000        1.8624900000
 C          5.1626200000        1.1152600000        1.8124400000
 Cl         0.0435800000       -0.9074100000        2.2064300000
 H          0.4773100000       -0.4633100000       -0.8323300000
 H          0.4729900000        1.1651600000       -0.4141200000
 H          0.6346300000       -0.0365700000        0.7050400000
 H          2.6711900000        0.3761400000       -1.3829700000
 H          2.7199900000       -0.7602700000       -0.0157600000
 H          2.5883900000        1.2360300000        1.5753900000
 H          2.6619300000        2.3227600000        0.2015900000
 H          4.7639100000        1.6702100000       -1.5328300000
 H          7.2157100000        1.6259600000       -1.4369300000
 H          7.0580300000        0.9593300000        2.8157600000
 H          4.6023400000        0.9729900000        2.7367500000
