28
 xtb: 6.5.1 (fef0646)
N           -2.90636125244208       -1.24409055389586        0.06355214733920
C           -1.47820860313346       -1.38678263794816       -0.35174745873493
C           -0.52566866225965       -0.63395556109183        0.56645880574487
C            0.96114401937627       -0.88929977896924        0.24895393873799
C            1.88486752719157       -0.30916455220317        1.34749492736068
C            3.36597448633392       -0.59565135203490        1.04749270702106
C            3.76553887344897       -0.04193013696957       -0.33085332065665
C            2.85714854952317       -0.60747355182225       -1.43537741851636
C            1.37574701452453       -0.32650979356823       -1.13309474320652
Cl          -3.42101988684087        2.53467862069522       -0.00788322928205
H           -3.14182935822094       -0.12330843931360        0.04459170572959
H           -3.08967827700718       -1.47022379823140        1.01681455034043
H           -3.58392201067385       -1.60815342247515       -0.57413176694045
H           -1.35762196366097       -1.02207137283863       -1.38128241602969
H           -1.27497709178594       -2.42293945784736       -0.34401599871583
H           -0.72945537540985       -0.90561725113233        1.61000772056126
H           -0.71369124979075        0.45987365281737        0.53034969708579
H            1.10992835506900       -1.97696436012787        0.22300163381836
H            1.59802350519936       -0.70362294925047        2.33163033018518
H            1.72642641957317        0.77241294518984        1.40880150481874
H            3.53495656546019       -1.68356860153296        1.06444126814667
H            4.01178607242539       -0.18955532009311        1.83549831780433
H            4.82137939801545       -0.25894412728181       -0.54786490951100
H            3.68672434819876        1.05013596661275       -0.31880401131266
H            3.00762771171799       -1.69142544581991       -1.51394872770251
H            3.13676559213445       -0.20183931531560       -2.41781577972574
H            0.73229406382707       -0.72970228519680       -1.92402539091248
H            1.19673712719099        0.75844273566754       -1.13942682582772
