 xtb: 6.5.1 (fef0646)
          01242310093D

 28 27  0     0  0            999 V2000
   -2.9212   -1.0862    0.0530 N   0  0  0  0  0  0  0  0  0  0  0  0
   -1.5045   -1.3322   -0.3439 C   0  0  0  0  0  0  0  0  0  0  0  0
   -0.5256   -0.6128    0.5729 C   0  0  0  0  0  0  0  0  0  0  0  0
    0.9566   -0.8842    0.2490 C   0  0  0  0  0  0  0  0  0  0  0  0
    1.8856   -0.3112    1.3473 C   0  0  0  0  0  0  0  0  0  0  0  0
    3.3657   -0.6008    1.0458 C   0  0  0  0  0  0  0  0  0  0  0  0
    3.7656   -0.0455   -0.3317 C   0  0  0  0  0  0  0  0  0  0  0  0
    2.8545   -0.6072   -1.4359 C   0  0  0  0  0  0  0  0  0  0  0  0
    1.3740   -0.3220   -1.1324 C   0  0  0  0  0  0  0  0  0  0  0  0
   -3.3857    2.3613   -0.0085 Cl  0  0  0  0  0  0  0  0  0  0  0  0
   -3.1309   -0.0717    0.0380 H   0  0  0  0  0  0  0  0  0  0  0  0
   -3.1017   -1.4216    1.0143 H   0  0  0  0  0  0  0  0  0  0  0  0
   -3.5937   -1.5572   -0.5766 H   0  0  0  0  0  0  0  0  0  0  0  0
   -1.3568   -1.0135   -1.3802 H   0  0  0  0  0  0  0  0  0  0  0  0
   -1.2991   -2.4102   -0.3360 H   0  0  0  0  0  0  0  0  0  0  0  0
   -0.7296   -0.9010    1.6114 H   0  0  0  0  0  0  0  0  0  0  0  0
   -0.7086    0.4670    0.5353 H   0  0  0  0  0  0  0  0  0  0  0  0
    1.1058   -1.9758    0.2224 H   0  0  0  0  0  0  0  0  0  0  0  0
    1.5982   -0.7045    2.3315 H   0  0  0  0  0  0  0  0  0  0  0  0
    1.7278    0.7720    1.4096 H   0  0  0  0  0  0  0  0  0  0  0  0
    3.5340   -1.6852    1.0632 H   0  0  0  0  0  0  0  0  0  0  0  0
    4.0121   -0.1920    1.8352 H   0  0  0  0  0  0  0  0  0  0  0  0
    4.8212   -0.2607   -0.5485 H   0  0  0  0  0  0  0  0  0  0  0  0
    3.6877    1.0492   -0.3185 H   0  0  0  0  0  0  0  0  0  0  0  0
    3.0059   -1.6914   -1.5143 H   0  0  0  0  0  0  0  0  0  0  0  0
    3.1361   -0.2018   -2.4180 H   0  0  0  0  0  0  0  0  0  0  0  0
    0.7313   -0.7274   -1.9240 H   0  0  0  0  0  0  0  0  0  0  0  0
    1.1974    0.7600   -1.1389 H   0  0  0  0  0  0  0  0  0  0  0  0
  1  2  1  0  0  0  0
  2  3  1  0  0  0  0
  3  4  1  0  0  0  0
  4  5  1  0  0  0  0
  5  6  1  0  0  0  0
  6  7  1  0  0  0  0
  7  8  1  0  0  0  0
  4  9  1  0  0  0  0
  8  9  1  0  0  0  0
  1 11  1  0  0  0  0
  1 12  1  0  0  0  0
  1 13  1  0  0  0  0
  2 14  1  0  0  0  0
  2 15  1  0  0  0  0
  3 16  1  0  0  0  0
  3 17  1  0  0  0  0
  4 18  1  0  0  0  0
  5 19  1  0  0  0  0
  5 20  1  0  0  0  0
  6 21  1  0  0  0  0
  6 22  1  0  0  0  0
  7 23  1  0  0  0  0
  7 24  1  0  0  0  0
  8 25  1  0  0  0  0
  8 26  1  0  0  0  0
  9 27  1  0  0  0  0
  9 28  1  0  0  0  0
M  END
