37
 xtb: 6.5.1 (fef0646)
N            4.40299875666963        0.31446668544579       -0.62711275822442
C            4.29050729708315        0.07423768774339        0.83483818499205
C            3.02724454509743       -0.72969688668858        1.09759258966383
O            1.89014276233024       -0.03972801227227        0.59716062271166
C            0.69429703412181       -0.73459037790980        0.69242309874417
C           -0.48316386141879       -0.07931134844924        0.24367534440036
C           -0.44257740889462        1.24672772518503       -0.26294353903862
C           -1.56401940991441        1.87563802182322       -0.69147382933906
C           -1.72592361064581       -0.75085549400235        0.30304383596067
C           -1.80311279650686       -2.06983540654047        0.80936941923805
C           -0.62692163680565       -2.68750578482125        1.25394991381988
C            0.57875647054665       -2.03851725313608        1.19974056565036
C           -3.06934504805671       -2.72115188108439        0.85393159669596
C           -4.19379917888972       -2.10044842943556        0.42363113174586
C           -4.15253329010055       -0.76880870627255       -0.09020215670630
C           -5.29640209471517       -0.10361704952633       -0.53826612269155
C           -5.21804917821628        1.18481622411188       -1.02661473985107
C           -4.00855543103760        1.84623692412535       -1.08421230097060
C           -2.83386080181324        1.22604619604638       -0.64998488700599
C           -2.90690892484135       -0.09621516384224       -0.14738571702265
Cl           7.43490676753230        2.59687356267282       -1.20644568693047
H            3.62617583881502        0.82750227353141       -0.98684119048153
H            4.60210006386709       -0.50252900592210       -1.15104520224382
H            5.27932140732168        0.98380993500675       -0.81033929668299
H            4.23082263833779        1.04154855878662        1.37456389130852
H            5.18654656817355       -0.42118772274077        1.22280621603766
H            2.89766714778099       -0.93964495240651        2.12699357889812
H            3.10762561449002       -1.67184536322982        0.52405761995276
H            0.50913434227388        1.75366050500378       -0.29620034813956
H           -1.51238171823738        2.88355949935217       -1.07304185425094
H           -0.67221187176456       -3.68492163535909        1.64191599224343
H            1.46599181327995       -2.54078174093348        1.54740544190697
H           -3.11020749482120       -3.72408594161317        1.24212479014370
H           -5.13603998928182       -2.60970452545746        0.46822236521025
H           -6.24225176806188       -0.61415867910385       -0.49503419931747
H           -6.11274302887305        1.67607456434130       -1.36686352104571
H           -3.96012027870904        2.84960411547346       -1.46790503543840
