 xtb: 6.5.1 (fef0646)
          01242317133D

 37 39  0     0  0            999 V2000
    4.4985    0.3914   -0.6205 N   0  0  0  0  0  0  0  0  0  0  0  0
    4.3093    0.1035    0.8239 C   0  0  0  0  0  0  0  0  0  0  0  0
    3.0465   -0.7166    1.0482 C   0  0  0  0  0  0  0  0  0  0  0  0
    1.8936   -0.0212    0.5889 O   0  0  0  0  0  0  0  0  0  0  0  0
    0.7036   -0.7246    0.6869 C   0  0  0  0  0  0  0  0  0  0  0  0
   -0.4786   -0.0736    0.2427 C   0  0  0  0  0  0  0  0  0  0  0  0
   -0.4415    1.2524   -0.2654 C   0  0  0  0  0  0  0  0  0  0  0  0
   -1.5640    1.8784   -0.6937 C   0  0  0  0  0  0  0  0  0  0  0  0
   -1.7201   -0.7472    0.3040 C   0  0  0  0  0  0  0  0  0  0  0  0
   -1.7938   -2.0662    0.8108 C   0  0  0  0  0  0  0  0  0  0  0  0
   -0.6145   -2.6810    1.2506 C   0  0  0  0  0  0  0  0  0  0  0  0
    0.5909   -2.0309    1.1909 C   0  0  0  0  0  0  0  0  0  0  0  0
   -3.0598   -2.7195    0.8574 C   0  0  0  0  0  0  0  0  0  0  0  0
   -4.1856   -2.1015    0.4278 C   0  0  0  0  0  0  0  0  0  0  0  0
   -4.1476   -0.7698   -0.0877 C   0  0  0  0  0  0  0  0  0  0  0  0
   -5.2927   -0.1074   -0.5358 C   0  0  0  0  0  0  0  0  0  0  0  0
   -5.2170    1.1805   -1.0262 C   0  0  0  0  0  0  0  0  0  0  0  0
   -4.0086    1.8438   -1.0851 C   0  0  0  0  0  0  0  0  0  0  0  0
   -2.8330    1.2265   -0.6502 C   0  0  0  0  0  0  0  0  0  0  0  0
   -2.9031   -0.0952   -0.1459 C   0  0  0  0  0  0  0  0  0  0  0  0
    7.2775    2.4754   -1.1588 Cl  0  0  0  0  0  0  0  0  0  0  0  0
    3.6623    0.8586   -0.9940 H   0  0  0  0  0  0  0  0  0  0  0  0
    4.6288   -0.4778   -1.1551 H   0  0  0  0  0  0  0  0  0  0  0  0
    5.3167    1.0032   -0.7950 H   0  0  0  0  0  0  0  0  0  0  0  0
    4.2303    1.0461    1.3774 H   0  0  0  0  0  0  0  0  0  0  0  0
    5.1888   -0.4144    1.2248 H   0  0  0  0  0  0  0  0  0  0  0  0
    2.9069   -0.9486    2.1105 H   0  0  0  0  0  0  0  0  0  0  0  0
    3.1139   -1.6615    0.4985 H   0  0  0  0  0  0  0  0  0  0  0  0
    0.5093    1.7553   -0.2978 H   0  0  0  0  0  0  0  0  0  0  0  0
   -1.5130    2.8841   -1.0745 H   0  0  0  0  0  0  0  0  0  0  0  0
   -0.6676   -3.6832    1.6407 H   0  0  0  0  0  0  0  0  0  0  0  0
    1.4707   -2.5384    1.5424 H   0  0  0  0  0  0  0  0  0  0  0  0
   -3.1068   -3.7235    1.2435 H   0  0  0  0  0  0  0  0  0  0  0  0
   -5.1334   -2.6105    0.4699 H   0  0  0  0  0  0  0  0  0  0  0  0
   -6.2409   -0.6157   -0.4940 H   0  0  0  0  0  0  0  0  0  0  0  0
   -6.1127    1.6741   -1.3670 H   0  0  0  0  0  0  0  0  0  0  0  0
   -3.9607    2.8487   -1.4688 H   0  0  0  0  0  0  0  0  0  0  0  0
  1  2  1  0  0  0  0
  2  3  1  0  0  0  0
  3  4  1  0  0  0  0
  4  5  1  0  0  0  0
  5  6  4  0  0  0  0
  6  7  4  0  0  0  0
  7  8  2  0  0  0  0
  6  9  4  0  0  0  0
  9 10  4  0  0  0  0
 10 11  4  0  0  0  0
  5 12  4  0  0  0  0
 11 12  4  0  0  0  0
 10 13  4  0  0  0  0
 13 14  2  0  0  0  0
 14 15  1  0  0  0  0
 15 16  4  0  0  0  0
 16 17  4  0  0  0  0
 17 18  4  0  0  0  0
  8 19  4  0  0  0  0
 18 19  4  0  0  0  0
  9 20  4  0  0  0  0
 15 20  4  0  0  0  0
 19 20  4  0  0  0  0
  1 22  1  0  0  0  0
  1 23  1  0  0  0  0
  1 24  1  0  0  0  0
  2 25  1  0  0  0  0
  2 26  1  0  0  0  0
  3 27  1  0  0  0  0
  3 28  1  0  0  0  0
  7 29  1  0  0  0  0
  8 30  1  0  0  0  0
 11 31  1  0  0  0  0
 12 32  1  0  0  0  0
 13 33  1  0  0  0  0
 14 34  1  0  0  0  0
 16 35  1  0  0  0  0
 17 36  1  0  0  0  0
 18 37  1  0  0  0  0
M  END
