 xtb: 6.5.1 (fef0646)
          01242315543D

 16 14  0     0  0            999 V2000
    1.1038    0.3307    0.0308 N   0  0  0  0  0  0  0  0  0  0  0  0
    2.5734    0.1918    0.0311 C   0  0  0  0  0  0  0  0  0  0  0  0
    3.2518    1.5589   -0.0532 C   0  0  0  0  0  0  0  0  0  0  0  0
    4.7424    1.4125   -0.0855 C   0  0  0  0  0  0  0  0  0  0  0  0
    5.5684    2.0158    0.7484 C   0  0  0  0  0  0  0  0  0  0  0  0
   -0.1840   -2.4270    0.0725 Cl  0  0  0  0  0  0  0  0  0  0  0  0
    0.6481   -0.6178    0.0573 H   0  0  0  0  0  0  0  0  0  0  0  0
    0.7815    0.8020   -0.8180 H   0  0  0  0  0  0  0  0  0  0  0  0
    0.7843    0.8529    0.8503 H   0  0  0  0  0  0  0  0  0  0  0  0
    2.8621   -0.4295   -0.8166 H   0  0  0  0  0  0  0  0  0  0  0  0
    2.8745   -0.3251    0.9418 H   0  0  0  0  0  0  0  0  0  0  0  0
    2.9695    2.1767    0.7994 H   0  0  0  0  0  0  0  0  0  0  0  0
    2.9367    2.0623   -0.9704 H   0  0  0  0  0  0  0  0  0  0  0  0
    5.1284    0.7649   -0.8610 H   0  0  0  0  0  0  0  0  0  0  0  0
    5.2133    2.6680    1.5295 H   0  0  0  0  0  0  0  0  0  0  0  0
    6.6358    1.8925    0.6843 H   0  0  0  0  0  0  0  0  0  0  0  0
  1  2  1  0  0  0  0
  2  3  1  0  0  0  0
  3  4  1  0  0  0  0
  4  5  2  0  0  0  0
  1  7  1  0  0  0  0
  1  8  1  0  0  0  0
  1  9  1  0  0  0  0
  2 10  1  0  0  0  0
  2 11  1  0  0  0  0
  3 12  1  0  0  0  0
  3 13  1  0  0  0  0
  4 14  1  0  0  0  0
  5 15  1  0  0  0  0
  5 16  1  0  0  0  0
M  END
