18
 xtb: 6.5.1 (fef0646)
N           -2.31537725877114       -1.98499350892279       -0.03700795668871
C           -1.24846973893205       -2.42855390911518       -0.98460652255924
C            0.06839963342538       -1.68237570938300       -0.78525108032808
C           -0.02291899210790       -0.19455114265130       -1.11973833238254
C            1.29568188877827        0.53282377524339       -0.92302897754462
Br           1.94648621732260        0.50469689857098        0.91418518098821
Cl          -3.22318421377983        1.24341201172713       -0.51005277509255
H           -1.95987273580750       -2.13630460905727        0.94539488529630
H           -3.14590927135492       -2.59151666354717       -0.13134425498794
H           -2.54230241207663       -1.04463055678347       -0.16363754667062
H           -1.58883996583006       -2.31905826749276       -2.01512412087779
H           -1.05941399338227       -3.53724648951741       -0.88208888858717
H            0.87329952247437       -2.15343514098906       -1.40929759874804
H            0.42091051623346       -1.81617836461197        0.23807277821643
H           -0.78962434173987        0.24890434195018       -0.50420679164851
H           -0.37320730742644       -0.09480455278716       -2.16552187033039
H            1.21783708955867        1.56955884445424       -1.23445829483973
H            2.08957801793191        0.07035583943641       -1.52074362870439
