18
 xtb: 6.5.1 (fef0646)
N           -2.68839192172598       -2.13109184346754       -0.09374071678076
C           -1.30718157770138       -2.29174143212246       -0.62799862012711
C           -0.25688819043390       -1.55551200945891        0.19995916822155
C           -0.40701062551667       -0.03448969332855        0.17197063241151
C            0.73246706491521        0.67416761525654        0.88663833403678
Br           2.43070459454533        0.40758368689334        0.01565168990104
Cl          -3.71413205820497        1.43634934101256       -0.31464656461104
H           -3.40725547372539       -2.63189501009024       -0.60939626348265
H           -2.99129646519573       -1.09628876248409       -0.13104901802260
H           -2.75299437837667       -2.37263433735910        0.90044689965185
H           -1.30093073653278       -1.92873483464155       -1.67170039640989
H           -1.10252049715934       -3.34211770656390       -0.66654459442167
H            0.73267793254917       -1.81305108212896       -0.17458887583288
H           -0.30348888652218       -1.87147323472591        1.22332770567959
H           -1.37212426926860        0.28424862560454        0.55638564741026
H           -0.42963904085838        0.31436809435828       -0.91390917556135
H            0.79555018692869        0.36609678525321        1.89216038194860
H            0.57426927496172        1.77968921290800        0.87118116165236
