 xtb: 6.5.1 (fef0646)
          02032320383D

 18 16  0     0  0            999 V2000
   -2.2766   -2.0530   -0.0235 N   0  0  0  0  0  0  0  0  0  0  0  0
   -1.2213   -2.4708   -0.9909 C   0  0  0  0  0  0  0  0  0  0  0  0
    0.0886   -1.7097   -0.8026 C   0  0  0  0  0  0  0  0  0  0  0  0
   -0.0201   -0.2232   -1.1378 C   0  0  0  0  0  0  0  0  0  0  0  0
    1.2892    0.5190   -0.9327 C   0  0  0  0  0  0  0  0  0  0  0  0
    1.8705    0.5229    0.9079 Br  0  0  0  0  0  0  0  0  0  0  0  0
   -3.1694    1.3446   -0.4758 Cl  0  0  0  0  0  0  0  0  0  0  0  0
   -1.9462   -2.1590    0.9475 H   0  0  0  0  0  0  0  0  0  0  0  0
   -3.1354   -2.6101   -0.1277 H   0  0  0  0  0  0  0  0  0  0  0  0
   -2.5323   -1.0629   -0.1547 H   0  0  0  0  0  0  0  0  0  0  0  0
   -1.5855   -2.3301   -2.0152 H   0  0  0  0  0  0  0  0  0  0  0  0
   -1.0475   -3.5491   -0.8872 H   0  0  0  0  0  0  0  0  0  0  0  0
    0.8792   -2.1590   -1.4159 H   0  0  0  0  0  0  0  0  0  0  0  0
    0.4295   -1.8227    0.2323 H   0  0  0  0  0  0  0  0  0  0  0  0
   -0.7912    0.2387   -0.5108 H   0  0  0  0  0  0  0  0  0  0  0  0
   -0.3711   -0.1041   -2.1713 H   0  0  0  0  0  0  0  0  0  0  0  0
    1.2136    1.5646   -1.2398 H   0  0  0  0  0  0  0  0  0  0  0  0
    2.0910    0.0675   -1.5198 H   0  0  0  0  0  0  0  0  0  0  0  0
  1  2  1  0  0  0  0
  2  3  1  0  0  0  0
  3  4  1  0  0  0  0
  4  5  1  0  0  0  0
  5  6  1  0  0  0  0
  1  8  1  0  0  0  0
  1  9  1  0  0  0  0
  1 10  1  0  0  0  0
  2 11  1  0  0  0  0
  2 12  1  0  0  0  0
  3 13  1  0  0  0  0
  3 14  1  0  0  0  0
  4 15  1  0  0  0  0
  4 16  1  0  0  0  0
  5 17  1  0  0  0  0
  5 18  1  0  0  0  0
M  END
