23
 xtb: 6.5.1 (fef0646)
N           -2.41484527855387        1.65481630407057       -0.62229239608748
C           -1.33166984761374        2.03432853870888        0.32555569958429
C           -0.11862460279747        1.16763601318245        0.18382196011485
C           -0.23228845404525       -0.21284015703164        0.25010953931089
C            0.87517102450950       -1.02331867622944        0.10804878227525
C            2.13911086875924       -0.47493568623474       -0.09524469340521
C            3.30731602269530       -1.34912235847026       -0.25175177860973
C            4.54962689888806       -0.99100839939833        0.06964395395888
C            2.25053575635477        0.91228377627000       -0.15981832635952
C            1.13824553600015        1.71957737988905       -0.02328247914555
Cl          -3.48500996667830       -1.43156687530315        0.13807130188577
H           -2.03033807908998        1.73758792496101       -1.61615239668289
H           -3.19958024077802        2.35600541198607       -0.59519702192661
H           -2.75593683170053        0.74684663276125       -0.48778161774041
H           -1.71590402709811        1.96170344681861        1.34841122543718
H           -1.03761318921349        3.09613106452882        0.20533028268613
H           -1.21261254124544       -0.64582851794711        0.38482254693523
H            0.76242504094150       -2.09127514090043        0.16306836547152
H            3.10004252095556       -2.37311394945880       -0.51995270341319
H            4.79790542304776        0.00210651459618        0.34586933369985
H            5.37581002354709       -1.67370141654106       -0.10215389320501
H            3.21825337009585        1.35647306494182       -0.31114929065772
H            1.24496472441058        2.79260090702872       -0.06670893879738
