 xtb: 6.5.1 (fef0646)
          01242310103D

 41 40  0     0  0            999 V2000
   -6.7792   -0.3413   -0.1595 N   0  0  0  0  0  0  0  0  0  0  0  0
   -5.7779    0.1389    0.8353 C   0  0  0  0  0  0  0  0  0  0  0  0
   -4.3548   -0.3072    0.5121 C   0  0  0  0  0  0  0  0  0  0  0  0
   -3.7879    0.3364   -0.7532 C   0  0  0  0  0  0  0  0  0  0  0  0
   -2.3715   -0.1319   -1.1038 C   0  0  0  0  0  0  0  0  0  0  0  0
   -1.3032    0.3123   -0.1032 C   0  0  0  0  0  0  0  0  0  0  0  0
    0.1068   -0.1313   -0.4970 C   0  0  0  0  0  0  0  0  0  0  0  0
    1.1794    0.3090    0.5003 C   0  0  0  0  0  0  0  0  0  0  0  0
    2.5843   -0.1630    0.1216 C   0  0  0  0  0  0  0  0  0  0  0  0
    3.6548    0.2750    1.1227 C   0  0  0  0  0  0  0  0  0  0  0  0
    5.0537   -0.2672    0.8130 C   0  0  0  0  0  0  0  0  0  0  0  0
    5.6632    0.2855   -0.4768 C   0  0  0  0  0  0  0  0  0  0  0  0
    7.0737   -0.2248   -0.7298 C   0  0  0  0  0  0  0  0  0  0  0  0
   -6.7548   -1.3687   -0.2427 H   0  0  0  0  0  0  0  0  0  0  0  0
   -6.6034    0.0497   -1.0967 H   0  0  0  0  0  0  0  0  0  0  0  0
   -7.7401   -0.0757    0.1068 H   0  0  0  0  0  0  0  0  0  0  0  0
   -6.0688   -0.2225    1.8301 H   0  0  0  0  0  0  0  0  0  0  0  0
   -5.8196    1.2329    0.8957 H   0  0  0  0  0  0  0  0  0  0  0  0
   -4.3335   -1.3978    0.4060 H   0  0  0  0  0  0  0  0  0  0  0  0
   -3.6962   -0.0863    1.3602 H   0  0  0  0  0  0  0  0  0  0  0  0
   -3.7957    1.4269   -0.6427 H   0  0  0  0  0  0  0  0  0  0  0  0
   -4.4611    0.1290   -1.5934 H   0  0  0  0  0  0  0  0  0  0  0  0
   -2.0953    0.2341   -2.1005 H   0  0  0  0  0  0  0  0  0  0  0  0
   -2.3595   -1.2247   -1.1880 H   0  0  0  0  0  0  0  0  0  0  0  0
   -1.5391   -0.0764    0.8934 H   0  0  0  0  0  0  0  0  0  0  0  0
   -1.3291    1.4032    0.0013 H   0  0  0  0  0  0  0  0  0  0  0  0
    0.3500    0.2569   -1.4929 H   0  0  0  0  0  0  0  0  0  0  0  0
    0.1307   -1.2221   -0.6027 H   0  0  0  0  0  0  0  0  0  0  0  0
    0.9250   -0.0630    1.4995 H   0  0  0  0  0  0  0  0  0  0  0  0
    1.1703    1.4013    0.5919 H   0  0  0  0  0  0  0  0  0  0  0  0
    2.8339    0.2064   -0.8792 H   0  0  0  0  0  0  0  0  0  0  0  0
    2.5911   -1.2556    0.0337 H   0  0  0  0  0  0  0  0  0  0  0  0
    3.3493   -0.0417    2.1277 H   0  0  0  0  0  0  0  0  0  0  0  0
    3.6875    1.3697    1.1664 H   0  0  0  0  0  0  0  0  0  0  0  0
    5.0177   -1.3614    0.7586 H   0  0  0  0  0  0  0  0  0  0  0  0
    5.7311   -0.0454    1.6471 H   0  0  0  0  0  0  0  0  0  0  0  0
    5.6631    1.3820   -0.4357 H   0  0  0  0  0  0  0  0  0  0  0  0
    5.0188    0.0319   -1.3272 H   0  0  0  0  0  0  0  0  0  0  0  0
    7.4958    0.1774   -1.6532 H   0  0  0  0  0  0  0  0  0  0  0  0
    7.0923   -1.3131   -0.8080 H   0  0  0  0  0  0  0  0  0  0  0  0
    7.7462    0.0510    0.0843 H   0  0  0  0  0  0  0  0  0  0  0  0
  1  2  1  0  0  0  0
  2  3  1  0  0  0  0
  3  4  1  0  0  0  0
  4  5  1  0  0  0  0
  5  6  1  0  0  0  0
  6  7  1  0  0  0  0
  7  8  1  0  0  0  0
  8  9  1  0  0  0  0
  9 10  1  0  0  0  0
 10 11  1  0  0  0  0
 11 12  1  0  0  0  0
 12 13  1  0  0  0  0
  1 14  1  0  0  0  0
  1 15  1  0  0  0  0
  1 16  1  0  0  0  0
  2 17  1  0  0  0  0
  2 18  1  0  0  0  0
  3 19  1  0  0  0  0
  3 20  1  0  0  0  0
  4 21  1  0  0  0  0
  4 22  1  0  0  0  0
  5 23  1  0  0  0  0
  5 24  1  0  0  0  0
  6 25  1  0  0  0  0
  6 26  1  0  0  0  0
  7 27  1  0  0  0  0
  7 28  1  0  0  0  0
  8 29  1  0  0  0  0
  8 30  1  0  0  0  0
  9 31  1  0  0  0  0
  9 32  1  0  0  0  0
 10 33  1  0  0  0  0
 10 34  1  0  0  0  0
 11 35  1  0  0  0  0
 11 36  1  0  0  0  0
 12 37  1  0  0  0  0
 12 38  1  0  0  0  0
 13 39  1  0  0  0  0
 13 40  1  0  0  0  0
 13 41  1  0  0  0  0
M  CHG  1   1   1
M  END
