22
 xtb: 6.5.1 (fef0646)
N           -3.28260150859455        1.12023502683499       -1.05564915287472
C           -3.18910413691435        2.03949126439156        0.11329996348548
C           -2.38449975974635        1.43688357934625        1.26421080946112
C           -1.01818106341200        0.98471405940286        0.83839138813901
C            0.02179001767120        1.89545147632900        0.70859061126975
C            1.26912847324930        1.48110663694403        0.27388092045864
C            1.48841022899760        0.15513045672822       -0.03720556819132
Br           3.18962038860074       -0.40652686955159       -0.63261084178519
C            0.46138766445665       -0.75749345563897        0.08169582247847
C           -0.78813541692988       -0.34498414972453        0.51185902293607
Cl          -3.90242863181214       -2.27931338404445        0.55339331184866
H           -2.38852791304529        0.84141800952476       -1.43362954387849
H           -3.95093484257031        1.33458638233154       -1.75641035241366
H           -3.65775896813109        0.10640873071572       -0.66000768433197
H           -4.20873765320172        2.27092446148286        0.45546917230941
H           -2.75142030246084        2.91745409335135       -0.26465444679825
H           -2.90432208100460        0.59752641343933        1.73022553261680
H           -2.27968247320873        2.19256469671489        2.06406420477255
H           -0.14313565260090        2.93286601068960        0.95794047405070
H            2.08801291511780        2.18340679823261        0.18438448564743
H            0.64114237256452       -1.78573630473704       -0.18132855446349
H           -1.59815753177057       -1.04610283765181        0.57888707121569
