17

N          1.05024       -0.03991       -0.07611
C          2.53288       -0.04004       -0.08360
C          3.03978       -0.36808        1.31450
C          4.56849       -0.37774        1.35480
C          5.08486       -0.70318        2.74819
Br         7.02778       -0.69990        2.73451
H          0.67741        0.17938       -1.00987
H          0.67030        0.66150        0.57388
H          0.66852       -0.95640        0.19497
H          2.84852        0.95523       -0.40993
H          2.84677       -0.78638       -0.81861
H          2.65865       -1.34788        1.62787
H          2.65874        0.36932        2.03127
H          4.94805        0.60091        1.03457
H          4.94783       -1.11346        0.63417
H          4.77241       -1.69764        3.07825
H          4.77238        0.04223        3.48455
