 xtb: 6.5.1 (fef0646)
          01242310093D

 21 21  0     0  0            999 V2000
   -3.7103   -0.0476    0.3161 N   0  0  0  0  0  0  0  0  0  0  0  0
   -2.2476   -0.1467    0.5955 C   0  0  0  0  0  0  0  0  0  0  0  0
   -1.3879    0.1691   -0.6250 C   0  0  0  0  0  0  0  0  0  0  0  0
    0.0854    0.0887   -0.3505 C   0  0  0  0  0  0  0  0  0  0  0  0
    0.7786   -1.1174   -0.5072 C   0  0  0  0  0  0  0  0  0  0  0  0
    2.1413   -1.1965   -0.2332 C   0  0  0  0  0  0  0  0  0  0  0  0
    2.8301   -0.0719    0.2072 C   0  0  0  0  0  0  0  0  0  0  0  0
    2.1540    1.1313    0.3749 C   0  0  0  0  0  0  0  0  0  0  0  0
    0.7914    1.2102    0.1010 C   0  0  0  0  0  0  0  0  0  0  0  0
   -4.2752   -0.2685    1.1501 H   0  0  0  0  0  0  0  0  0  0  0  0
   -3.9919   -0.6996   -0.4306 H   0  0  0  0  0  0  0  0  0  0  0  0
   -3.9678    0.9027    0.0102 H   0  0  0  0  0  0  0  0  0  0  0  0
   -2.0137   -1.1535    0.9619 H   0  0  0  0  0  0  0  0  0  0  0  0
   -1.9872    0.5327    1.4161 H   0  0  0  0  0  0  0  0  0  0  0  0
   -1.6330    1.1687   -0.9997 H   0  0  0  0  0  0  0  0  0  0  0  0
   -1.6428   -0.5135   -1.4426 H   0  0  0  0  0  0  0  0  0  0  0  0
    0.2487   -1.9909   -0.8496 H   0  0  0  0  0  0  0  0  0  0  0  0
    2.6646   -2.1311   -0.3645 H   0  0  0  0  0  0  0  0  0  0  0  0
    3.8872   -0.1325    0.4175 H   0  0  0  0  0  0  0  0  0  0  0  0
    2.6872    2.0055    0.7157 H   0  0  0  0  0  0  0  0  0  0  0  0
    0.2713    2.1448    0.2312 H   0  0  0  0  0  0  0  0  0  0  0  0
  1  2  1  0  0  0  0
  2  3  1  0  0  0  0
  3  4  1  0  0  0  0
  4  5  4  0  0  0  0
  5  6  4  0  0  0  0
  6  7  4  0  0  0  0
  7  8  4  0  0  0  0
  4  9  4  0  0  0  0
  8  9  4  0  0  0  0
  1 10  1  0  0  0  0
  1 11  1  0  0  0  0
  1 12  1  0  0  0  0
  2 13  1  0  0  0  0
  2 14  1  0  0  0  0
  3 15  1  0  0  0  0
  3 16  1  0  0  0  0
  5 17  1  0  0  0  0
  6 18  1  0  0  0  0
  7 19  1  0  0  0  0
  8 20  1  0  0  0  0
  9 21  1  0  0  0  0
M  CHG  1   1   1
M  END
