16
 xtb: 6.5.1 (fef0646)
N           -0.49480246235955        1.38198692363230       -1.08316861095520
C           -1.50549870507585        1.43091178864002        0.00962151700947
C           -1.59123985751958        0.11457251413506        0.78187705182103
C           -1.89690732174606       -1.04961079441450       -0.09854599039509
C           -0.96005170121533       -1.84519705690799       -0.57969858589304
Cl           2.59582708302937       -0.18892670677413        0.49405543942094
H            0.49259676931002        1.03669000089477       -0.62168083726395
H           -0.23968448906252        2.24880952671509       -1.50973966672181
H           -0.64547292392998        0.64585619133298       -1.76026477885492
H           -2.41536807573170        1.66706742252557       -0.46397299260305
H           -1.23845213935772        2.24654857104922        0.69282484417569
H           -2.36367996946780        0.20492395394241        1.56461280989949
H           -0.66102474637670       -0.08852977784110        1.33324145318478
H           -2.92841615073945       -1.22222786050151       -0.36471327719398
H            0.07640730632644       -1.67498849308834       -0.35386503633314
H           -1.18818970535937       -2.66611306461350       -1.23548375993577
