  28

 N          2.7431821797        3.0101958129       -1.7722403252
 C          2.4618065855        2.5662326882       -0.4087218975
 C          2.9560587333        1.1271758633       -0.2224468610
 C          4.4461282728        1.0513934025       -0.4023686485
 C          4.9926960360        0.6911109569       -1.6073655522
 C          6.3893520393        0.6641257821       -1.7989541758
 C          6.9676288888        0.2923209720       -3.0307480192
 C          8.3251199585        0.2792218210       -3.1878696219
 C          9.1666287364        0.6380476996       -2.1228316476
 C          8.6368477395        1.0022103467       -0.9167046002
 C          7.2405200783        1.0246711042       -0.7218597924
 C          6.6560820665        1.3917021676        0.5085508905
 C          5.2992265291        1.4050129994        0.6620873518
 Cl         1.5853023751        1.1626003112       -3.7188354568
 H          2.4002820890        3.9500441019       -1.9356638960
 H          2.1140206207        2.0373220870       -2.7879774209
 H          3.7434089577        2.9825555445       -1.9499369640
 H          1.3801053502        2.6037058286       -0.2622852545
 H          2.9366463310        3.2167008672        0.3395570875
 H          2.4599545734        0.4934093808       -0.9565006225
 H          2.6804422459        0.7917546192        0.7784374860
 H          4.3493890437        0.4162995794       -2.4310823188
 H          6.3146016360        0.0173331435       -3.8465140901
 H          8.7619964334       -0.0078544192       -4.1332231159
 H         10.2373097144        0.6229703474       -2.2658264147
 H          9.2804867158        1.2783208338       -0.0932256087
 H          7.3036938522        1.6609001873        1.3310586432
 H          4.8626322182        1.6835959707        1.6112108454
