  17

 N          0.9410743025        0.0580840806       -0.0439665343
 C          2.4386177279        0.0604724254       -0.0775580308
 C          2.9472161118        0.0895368098       -1.5118187259
 C          4.4807483827        0.0902944897       -1.5314863640
 C          5.0121528032        0.1203269594       -2.9551370061
 I          7.1783007635        0.1204084175       -2.9596160981
 H          0.5889094844        0.0386796589        0.9217591591
 H          0.5806092909       -0.7659355248       -0.5438797773
 H          0.5786702671        0.9002828353       -0.5111095691
 H          2.7960811009       -0.8351443402        0.4327896233
 H          2.7940478703        0.9359340119        0.4679695501
 H          2.5852747462        0.9852382650       -2.0209066248
 H          2.5857286253       -0.7850995571       -2.0566110439
 H          4.8524492300       -0.8022723438       -1.0254688836
 H          4.8520782993        0.9609782909       -0.9884243214
 H          4.6984239310        1.0193663393       -3.4799534575
 H          4.6984370631       -0.7557808177       -3.5174118956
