24
0.0
N           -2.29482  -1.77753   0.32162
C           -0.94072  -1.82063  -0.30448
C            0.00698  -0.79223   0.30014
C            1.39525  -0.80753  -0.33991
C            2.34407   0.22576   0.26756
C            3.73329   0.21291  -0.37179
C            4.67212   1.24300   0.23882
Cl          -3.46738   1.50535  -0.07811
H           -2.24101  -1.98049   1.32867
H           -2.94292  -2.45424  -0.10494
H           -2.70754  -0.83461   0.21978
H           -1.02666  -1.65193  -1.38471
H           -0.51390  -2.82529  -0.20102
H            0.09532  -0.96382   1.37931
H           -0.43114   0.20848   0.20763
H            1.30522  -0.63537  -1.41924
H            1.83263  -1.80892  -0.24757
H            2.43386   0.05346   1.34700
H            1.90572   1.22692   0.17591
H            3.63681   0.38269  -1.45215
H            4.16477  -0.79255  -0.28120
H            4.27599   2.25403   0.12681
H            5.66065   1.22472  -0.22542
H            4.80871   1.06844   1.30774
