24
 xtb: 6.5.1 (fef0646)
N           -2.24474206491550       -1.92732664519074        0.34921629964590
C           -0.90374746729383       -1.87055410067347       -0.30898870714014
C            0.00967925461884       -0.81025925208972        0.29415017218592
C            1.40010532330702       -0.80891627930473       -0.34249367146126
C            2.34300240829603        0.22813270776496        0.26707029515826
C            3.73361363497508        0.21412796190603       -0.36949546261824
C            4.67211980375298        1.24445929065953        0.24089789727313
Cl          -3.53645033183105        1.66560913308204       -0.09251869422818
H           -2.21805076816914       -2.02317843377722        1.33536505695104
H           -2.92095945942783       -2.50377122018838       -0.09638489262056
H           -2.70765020183624       -0.88647152079591        0.23278332655368
H           -1.02526295820279       -1.66220248547986       -1.38449838572419
H           -0.48828592081584       -2.83423600776138       -0.21004649170169
H            0.09629469842356       -0.96617471381460        1.37804416676673
H           -0.43605388590470        0.20045102299170        0.20311115369087
H            1.30674194877633       -0.63536421453546       -1.41990970120826
H            1.83625024181936       -1.80846085080825       -0.24874177395358
H            2.43277861679111        0.05461951046448        1.34699721630630
H            1.90497853740826        1.22724719072026        0.17487490611781
H            3.63757218707141        0.38255340282917       -1.45162731828867
H            4.16471552699898       -0.79224212488927       -0.27987537606988
H            4.27594486326989        2.25436755104622        0.12714483480127
H            5.66066829531304        1.22506085207020       -0.22475757334889
H            4.80859299326268        1.06904788412874        1.30837382191968
