24
 xtb: 6.5.1 (fef0646)
N           -2.34020068297307       -1.65645111471088        0.30673307052399
C           -0.98004429187408       -1.74886852783792       -0.30793761229340
C           -0.00928776740748       -0.74363608455431        0.29986960848184
C            1.37991558894562       -0.78555539735277       -0.33728211537097
C            2.34391916789703        0.23519716107637        0.26796514233118
C            3.73371586974342        0.20095249609874       -0.36963996004981
C            4.68490178033400        1.22218592560902        0.23702291754347
Cl          -3.39349719744985        1.33244052623387       -0.06646793393966
H           -2.25689571169588       -1.94529940234681        1.32524424155933
H           -2.95915895451874       -2.41788642572471       -0.10840419314361
H           -2.71355379435206       -0.79827743109751        0.21245975894925
H           -1.03466907024236       -1.63126345697105       -1.38601381967175
H           -0.53337070061474       -2.80779002366505       -0.20029600970788
H            0.08868723237303       -0.95088078257123        1.37920292989202
H           -0.43013866245362        0.22504633892738        0.20787550537763
H            1.30221579473847       -0.62993679348893       -1.41876062104910
H            1.82323391288854       -1.80458300214349       -0.24532187729634
H            2.43265822494742        0.05671566208597        1.34729347099291
H            1.90990171610432        1.23140558859174        0.17502073839446
H            3.63793498094014        0.37798118659383       -1.45182505005299
H            4.16106921886729       -0.79751945283955       -0.27897885577574
H            4.28358694258584        2.24929788805888        0.12445424134962
H            5.66455069780771        1.21416091260360       -0.22536603122415
H            4.81115642890327        1.06354975689141        1.30756085582409
