20

N          0.93900       -0.02258       -0.09599
C          2.41716       -0.04603       -0.02396
C          2.99252       -0.11354       -1.43286
C          4.52441       -0.13717       -1.44621
C          5.12181       -1.38486       -0.78577
C          6.63136       -1.35405       -0.81390
O          7.18869       -2.57985       -0.73856
O          7.28987       -0.32795       -0.83897
H          0.52471        0.00956        0.84664
H          0.55797       -0.85179       -0.56930
H          0.59787        0.80710       -0.60225
H          2.67591       -0.92412        0.57225
H          2.72840        0.86174        0.50161
H          2.65542        0.76097       -2.00460
H          2.60913       -0.99716       -1.95792
H          4.90400        0.76935       -0.95841
H          4.86647       -0.08888       -2.48818
H          4.76406       -2.27358       -1.31441
H          4.82451       -1.45413        0.26561
H          6.57294       -3.33706       -0.71016
