24
 xtb: 6.5.1 (fef0646)
N            2.70224629662464       -0.80092945114585        0.33597198475006
C            1.58938131958620        0.17991600225763        0.49601334882392
C            0.61145885872495        0.18501802523520       -0.68955442710490
C           -0.31373946308400        1.43239494373530       -0.68243011462561
C           -1.36684278464708        1.37382931272776        0.43880073076656
C           -2.20268877289430        0.08531537299892        0.35486909685040
C           -1.30439216729675       -1.16285044643666        0.37161063765285
C           -0.24497032781363       -1.10853714589211       -0.74442545431903
H            3.30874842123193       -0.57363485623885       -0.45490618153079
H            2.31225318876409       -1.76179915403523        0.18711805254732
H            3.28496447321522       -0.84462242721088        1.19962099675537
H            2.03879519195879        1.18413647455058        0.60236301614200
H            1.05563658460333        0.00122501684624        1.42351182592779
H            1.21815644873681        0.23425090903997       -1.60576496301819
H           -0.81689711114691        1.53011329880242       -1.63970081366074
H            0.29249589147619        2.34532490046498       -0.56763540644410
H           -2.02213318989653        2.25222766445224        0.40987055131714
H           -0.87781954477503        1.41322109564795        1.42251847148632
H           -2.79146983100018        0.09754319700953       -0.57815402364261
H           -2.94124667517070        0.03614443006669        1.16081201824618
H           -1.91254638652359       -2.07581757780502        0.26092613470142
H           -0.81633471942168       -1.25376024593769        1.33643982431030
H           -0.74344726723402       -1.16005583457721       -1.72650274295999
H            0.40203412897205       -1.98753170324396       -0.70878827549891
