21
 xtb: 6.5.1 (fef0646)
N           -5.45349486556346        0.39369644862719       -0.78252078091477
C           -3.96175207111644        0.34422718347207       -0.87562353837615
C           -3.30457508924138       -0.09843358833317        0.43344262256036
C           -1.80546939084497       -0.10077992713359        0.35488844394682
C           -1.12669157934932       -1.17220753769533       -0.20982832307509
C            0.25063239294973       -1.15584874927878       -0.31642526825850
C            0.95949403726901       -0.07024703570754        0.14551817523739
Br           2.84607177553246       -0.05285488246497        0.00442231784750
C            0.30385847310278        1.00135991660413        0.70617950503760
C           -1.07429697552960        0.98934758599802        0.80311801277110
H           -5.80558539295326       -0.53804932205206       -0.52845941120256
H           -5.87273222835431        0.66927580328611       -1.68187394208981
H           -5.78025314927648        1.06484866880585       -0.06106574779680
H           -3.60591076630198        1.40932985588429       -1.06805196792561
H           -3.64207046225142       -0.21691018448387       -1.70594912320272
H           -3.65207265409836       -1.14100882341411        0.63116161066535
H           -3.62931827140628        0.47351347718066        1.27892617184699
H           -1.66728698171755       -2.05920097127608       -0.52430460965187
H            0.79395004542470       -2.01751916432479       -0.69764755045502
H            0.85654497236696        1.87004298744370        1.00085746064031
H           -1.60486282772523        1.83964620534727        1.17399785589311
