 xtb: 6.5.1 (fef0646)
          01242315093D

 16 15  0     0  0            999 V2000
    2.2110    0.0061   -0.0751 N   0  0  0  0  0  0  0  0  0  0  0  0
    0.7651    0.0648    0.0304 C   0  0  0  0  0  0  0  0  0  0  0  0
    0.0408   -1.1132    0.1226 C   0  0  0  0  0  0  0  0  0  0  0  0
   -1.3393   -1.0628    0.2134 C   0  0  0  0  0  0  0  0  0  0  0  0
   -1.9924    0.1596    0.2121 C   0  0  0  0  0  0  0  0  0  0  0  0
   -1.2640    1.3331    0.1176 C   0  0  0  0  0  0  0  0  0  0  0  0
    0.1180    1.2886    0.0270 C   0  0  0  0  0  0  0  0  0  0  0  0
    3.0491   -1.0908   -2.7447 Cl  0  0  0  0  0  0  0  0  0  0  0  0
    2.6161   -0.6398    0.6096 H   0  0  0  0  0  0  0  0  0  0  0  0
    2.6316    0.9346    0.0231 H   0  0  0  0  0  0  0  0  0  0  0  0
    2.4983   -0.3687   -1.0309 H   0  0  0  0  0  0  0  0  0  0  0  0
    0.5534   -2.0617    0.1057 H   0  0  0  0  0  0  0  0  0  0  0  0
   -1.9058   -1.9783    0.2819 H   0  0  0  0  0  0  0  0  0  0  0  0
   -3.0684    0.1956    0.2797 H   0  0  0  0  0  0  0  0  0  0  0  0
   -1.7713    2.2850    0.1119 H   0  0  0  0  0  0  0  0  0  0  0  0
    0.6810    2.2049   -0.0533 H   0  0  0  0  0  0  0  0  0  0  0  0
  1  2  1  0  0  0  0
  2  3  4  0  0  0  0
  3  4  4  0  0  0  0
  4  5  4  0  0  0  0
  5  6  4  0  0  0  0
  2  7  4  0  0  0  0
  6  7  4  0  0  0  0
  1  9  1  0  0  0  0
  1 10  1  0  0  0  0
  1 11  1  0  0  0  0
  3 12  1  0  0  0  0
  4 13  1  0  0  0  0
  5 14  1  0  0  0  0
  6 15  1  0  0  0  0
  7 16  1  0  0  0  0
M  END
