34
0.727
N            2.92523   1.47274  -1.15007
C            3.14764   1.71750   0.30325
C            3.00396   0.44173   1.13010
C            1.66685  -0.21555   0.96425
C            0.58406   0.17113   1.74107
C           -0.64831  -0.41886   1.57266
C            1.47850  -1.19695   0.00142
C            0.24739  -1.78710  -0.17296
C           -0.83745  -1.40610   0.61080
N           -2.08416  -2.00694   0.43431
N           -3.15004  -1.37866   0.28707
C           -3.22485   0.00551   0.12623
C           -2.49757   0.64658  -0.87264
C           -2.55903   2.01485  -1.01589
C           -3.34906   2.76515  -0.16648
C           -4.08085   2.14164   0.82557
C           -4.02214   0.77325   0.97093
Cl           4.46407  -1.59662  -1.93700
H            3.14908   2.29572  -1.72661
H            1.94492   1.21683  -1.33014
H            3.50491   0.68044  -1.47447
H            2.43507   2.47179   0.65676
H            4.14215   2.15470   0.45410
H            3.17454   0.64985   2.19271
H            3.78604  -0.26955   0.84408
H            0.71757   0.94154   2.48146
H           -1.48486  -0.11985   2.17954
H            2.31101  -1.48925  -0.61668
H            0.10557  -2.54794  -0.92053
H           -1.88258   0.05344  -1.52673
H           -1.99099   2.50115  -1.79214
H           -3.39555   3.83613  -0.27858
H           -4.69858   2.72680   1.48722
H           -4.58669   0.27901   1.74228
