 xtb: 6.5.1 (fef0646)
          01242317083D

 28 27  0     0  0            999 V2000
   -2.2864   -1.2150   -1.3134 N   0  0  0  0  0  0  0  0  0  0  0  0
   -0.8373   -1.0118   -1.0181 C   0  0  0  0  0  0  0  0  0  0  0  0
   -0.5196    0.4427   -0.6933 C   0  0  0  0  0  0  0  0  0  0  0  0
    0.9552    0.7177   -0.3409 C   0  0  0  0  0  0  0  0  0  0  0  0
    1.9243    0.3913   -1.5007 C   0  0  0  0  0  0  0  0  0  0  0  0
    3.3683    0.7849   -1.1424 C   0  0  0  0  0  0  0  0  0  0  0  0
    3.8258    0.0879    0.1523 C   0  0  0  0  0  0  0  0  0  0  0  0
    2.8568    0.3764    1.3137 C   0  0  0  0  0  0  0  0  0  0  0  0
    1.4159   -0.0151    0.9405 C   0  0  0  0  0  0  0  0  0  0  0  0
   -4.0147   -0.1003    1.5256 Cl  0  0  0  0  0  0  0  0  0  0  0  0
   -2.5802   -0.6504   -2.1215 H   0  0  0  0  0  0  0  0  0  0  0  0
   -2.8617   -0.9195   -0.5062 H   0  0  0  0  0  0  0  0  0  0  0  0
   -2.5081   -2.1997   -1.5161 H   0  0  0  0  0  0  0  0  0  0  0  0
   -0.2379   -1.3480   -1.8716 H   0  0  0  0  0  0  0  0  0  0  0  0
   -0.5428   -1.6557   -0.1817 H   0  0  0  0  0  0  0  0  0  0  0  0
   -1.1566    0.7682    0.1371 H   0  0  0  0  0  0  0  0  0  0  0  0
   -0.8127    1.0690   -1.5433 H   0  0  0  0  0  0  0  0  0  0  0  0
    1.0593    1.7974   -0.1391 H   0  0  0  0  0  0  0  0  0  0  0  0
    1.5925    0.8804   -2.4255 H   0  0  0  0  0  0  0  0  0  0  0  0
    1.8851   -0.6840   -1.7061 H   0  0  0  0  0  0  0  0  0  0  0  0
    3.4262    1.8723   -1.0097 H   0  0  0  0  0  0  0  0  0  0  0  0
    4.0515    0.5558   -1.9718 H   0  0  0  0  0  0  0  0  0  0  0  0
    4.8490    0.3895    0.4155 H   0  0  0  0  0  0  0  0  0  0  0  0
    3.8765   -0.9947   -0.0172 H   0  0  0  0  0  0  0  0  0  0  0  0
    2.8911    1.4451    1.5588 H   0  0  0  0  0  0  0  0  0  0  0  0
    3.1770   -0.1426    2.2276 H   0  0  0  0  0  0  0  0  0  0  0  0
    0.7198    0.1827    1.7653 H   0  0  0  0  0  0  0  0  0  0  0  0
    1.3700   -1.0960    0.7698 H   0  0  0  0  0  0  0  0  0  0  0  0
  1  2  1  0  0  0  0
  2  3  1  0  0  0  0
  3  4  1  0  0  0  0
  4  5  1  0  0  0  0
  5  6  1  0  0  0  0
  6  7  1  0  0  0  0
  7  8  1  0  0  0  0
  4  9  1  0  0  0  0
  8  9  1  0  0  0  0
  1 11  1  0  0  0  0
  1 12  1  0  0  0  0
  1 13  1  0  0  0  0
  2 14  1  0  0  0  0
  2 15  1  0  0  0  0
  3 16  1  0  0  0  0
  3 17  1  0  0  0  0
  4 18  1  0  0  0  0
  5 19  1  0  0  0  0
  5 20  1  0  0  0  0
  6 21  1  0  0  0  0
  6 22  1  0  0  0  0
  7 23  1  0  0  0  0
  7 24  1  0  0  0  0
  8 25  1  0  0  0  0
  8 26  1  0  0  0  0
  9 27  1  0  0  0  0
  9 28  1  0  0  0  0
M  END
