36
 xtb: 6.5.1 (fef0646)
N           -5.67309397236655        1.63668763352166       -0.51524264663102
C           -4.20341789132036        1.43092392249349       -0.67125929769258
C           -3.60836916387670        0.65559572803763        0.49961420109455
C           -2.14024003130799        0.38736680652370        0.34315502955593
C           -1.19890342308448        1.29621113405023        0.80472949805339
C            0.14969838148582        1.06275101301420        0.64224569661559
C            0.60573049957362       -0.09281128624767        0.00583954330569
C            2.02209637445513       -0.38276890892824       -0.18079216082633
C            3.03668262651793        0.33932094026690        0.31973620406078
C            4.45247718085472        0.04515724574015        0.13268775150090
C            4.90631148868908       -0.91620316218771       -0.77335892956788
C            6.25415738299406       -1.16464019326295       -0.92446725976549
C            7.17852926482650       -0.46078491004896       -0.17762638821035
C            6.75063024315755        0.49691213544635        0.72106045318710
C            5.40416789519329        0.74903025508477        0.87378589978807
C           -0.34811747217731       -0.99401739830803       -0.46923354559459
C           -1.69527252334635       -0.75515224223018       -0.30546350441494
Cl          -7.07840227841113       -1.43753492648526       -0.05362772888172
H           -5.85697092929073        2.22218013313885        0.30871946756371
H           -6.15918038374019        0.75499972239723       -0.41309570655083
H           -6.06803303117966        2.14137384421396       -1.34103154462856
H           -3.67752942720949        2.37928364357933       -0.81509584516111
H           -4.00852964870469        0.86158406525889       -1.60761772961969
H           -4.13833419693291       -0.27538750696053        0.64178371397556
H           -3.77580644097070        1.23659121122481        1.42265565226723
H           -1.52811613531489        2.20757512735926        1.28726270867934
H            0.86391351668436        1.79708025639450        0.98999246065517
H            2.24984050799468       -1.23062718217927       -0.80477303854541
H            2.80836124385124        1.15739888732467        0.97615274667070
H            4.19999120200533       -1.44715176930832       -1.38656852214182
H            6.59010513458475       -1.88249868391313       -1.65619597238106
H            8.23308604583211       -0.64861390742973       -0.30664817971941
H            7.47072868908747        1.02676108208987        1.32439824859403
H            5.07205810352590        1.46323341411797        1.60837600971325
H           -0.02239121297659       -1.88462412139557       -0.96984159450243
H           -2.42138898657361       -1.45240326975596       -0.67273775423479
