 xtb: 6.5.1 (fef0646)
          02032318523D

 36 36  0     0  0            999 V2000
   -4.5044   -0.4875    0.2315 N   0  0  0  0  0  0  0  0  0  0  0  0
   -4.5124    0.9305   -0.2261 C   0  0  0  0  0  0  0  0  0  0  0  0
   -3.6769    1.8330    0.6787 C   0  0  0  0  0  0  0  0  0  0  0  0
   -2.2309    1.4345    0.7154 C   0  0  0  0  0  0  0  0  0  0  0  0
   -1.3862    1.7504   -0.3386 C   0  0  0  0  0  0  0  0  0  0  0  0
   -0.0660    1.3544   -0.3318 C   0  0  0  0  0  0  0  0  0  0  0  0
    0.4565    0.6213    0.7346 C   0  0  0  0  0  0  0  0  0  0  0  0
    1.8445    0.1786    0.7808 C   0  0  0  0  0  0  0  0  0  0  0  0
    2.7879    0.4778   -0.1238 C   0  0  0  0  0  0  0  0  0  0  0  0
    4.1751    0.0314   -0.0778 C   0  0  0  0  0  0  0  0  0  0  0  0
    4.6417   -0.8777    0.8740 C   0  0  0  0  0  0  0  0  0  0  0  0
    5.9614   -1.2769    0.8835 C   0  0  0  0  0  0  0  0  0  0  0  0
    6.8446   -0.7807   -0.0550 C   0  0  0  0  0  0  0  0  0  0  0  0
    6.4030    0.1171   -1.0066 C   0  0  0  0  0  0  0  0  0  0  0  0
    5.0844    0.5183   -1.0193 C   0  0  0  0  0  0  0  0  0  0  0  0
   -0.4014    0.3019    1.7878 C   0  0  0  0  0  0  0  0  0  0  0  0
   -1.7203    0.7005    1.7760 C   0  0  0  0  0  0  0  0  0  0  0  0
   -6.4210   -2.4725   -1.9394 Cl  0  0  0  0  0  0  0  0  0  0  0  0
   -3.5441   -0.8575    0.2539 H   0  0  0  0  0  0  0  0  0  0  0  0
   -5.0643   -1.0985   -0.3908 H   0  0  0  0  0  0  0  0  0  0  0  0
   -4.8888   -0.5698    1.1829 H   0  0  0  0  0  0  0  0  0  0  0  0
   -5.5464    1.2931   -0.2792 H   0  0  0  0  0  0  0  0  0  0  0  0
   -4.1282    0.9828   -1.2516 H   0  0  0  0  0  0  0  0  0  0  0  0
   -4.0830    1.8104    1.6956 H   0  0  0  0  0  0  0  0  0  0  0  0
   -3.7520    2.8782    0.3564 H   0  0  0  0  0  0  0  0  0  0  0  0
   -1.7775    2.3102   -1.1717 H   0  0  0  0  0  0  0  0  0  0  0  0
    0.5644    1.6094   -1.1653 H   0  0  0  0  0  0  0  0  0  0  0  0
    2.1155   -0.4299    1.6249 H   0  0  0  0  0  0  0  0  0  0  0  0
    2.5235    1.1060   -0.9554 H   0  0  0  0  0  0  0  0  0  0  0  0
    3.9642   -1.2802    1.6062 H   0  0  0  0  0  0  0  0  0  0  0  0
    6.3052   -1.9799    1.6253 H   0  0  0  0  0  0  0  0  0  0  0  0
    7.8761   -1.0943   -0.0454 H   0  0  0  0  0  0  0  0  0  0  0  0
    7.0909    0.5049   -1.7408 H   0  0  0  0  0  0  0  0  0  0  0  0
    4.7429    1.2193   -1.7625 H   0  0  0  0  0  0  0  0  0  0  0  0
   -0.0196   -0.2663    2.6195 H   0  0  0  0  0  0  0  0  0  0  0  0
   -2.3692    0.4404    2.5954 H   0  0  0  0  0  0  0  0  0  0  0  0
  1  2  1  0  0  0  0
  2  3  1  0  0  0  0
  3  4  1  0  0  0  0
  4  5  4  0  0  0  0
  5  6  4  0  0  0  0
  6  7  4  0  0  0  0
  7  8  1  0  0  0  0
  8  9  2  0  0  0  0
  9 10  1  0  0  0  0
 10 11  4  0  0  0  0
 11 12  4  0  0  0  0
 12 13  4  0  0  0  0
 13 14  4  0  0  0  0
 10 15  4  0  0  0  0
 14 15  4  0  0  0  0
  7 16  4  0  0  0  0
  4 17  4  0  0  0  0
 16 17  4  0  0  0  0
  1 19  1  0  0  0  0
  1 20  1  0  0  0  0
  1 21  1  0  0  0  0
  2 22  1  0  0  0  0
  2 23  1  0  0  0  0
  3 24  1  0  0  0  0
  3 25  1  0  0  0  0
  5 26  1  0  0  0  0
  6 27  1  0  0  0  0
  8 28  1  0  0  0  0
  9 29  1  0  0  0  0
 11 30  1  0  0  0  0
 12 31  1  0  0  0  0
 13 32  1  0  0  0  0
 14 33  1  0  0  0  0
 15 34  1  0  0  0  0
 16 35  1  0  0  0  0
 17 36  1  0  0  0  0
M  END
