 xtb: 6.5.1 (fef0646)
          01242317013D

 36 36  0     0  0            999 V2000
   -5.6588    1.6644   -0.5331 N   0  0  0  0  0  0  0  0  0  0  0  0
   -4.1960    1.4203   -0.6908 C   0  0  0  0  0  0  0  0  0  0  0  0
   -3.6032    0.6767    0.5009 C   0  0  0  0  0  0  0  0  0  0  0  0
   -2.1361    0.4011    0.3459 C   0  0  0  0  0  0  0  0  0  0  0  0
   -1.1915    1.3107    0.7990 C   0  0  0  0  0  0  0  0  0  0  0  0
    0.1560    1.0747    0.6308 C   0  0  0  0  0  0  0  0  0  0  0  0
    0.6066   -0.0835   -0.0043 C   0  0  0  0  0  0  0  0  0  0  0  0
    2.0222   -0.3697   -0.2028 C   0  0  0  0  0  0  0  0  0  0  0  0
    3.0363    0.3173    0.3428 C   0  0  0  0  0  0  0  0  0  0  0  0
    4.4525    0.0331    0.1447 C   0  0  0  0  0  0  0  0  0  0  0  0
    4.9078   -0.9044   -0.7848 C   0  0  0  0  0  0  0  0  0  0  0  0
    6.2560   -1.1446   -0.9446 C   0  0  0  0  0  0  0  0  0  0  0  0
    7.1798   -0.4555   -0.1837 C   0  0  0  0  0  0  0  0  0  0  0  0
    6.7507    0.4782    0.7387 C   0  0  0  0  0  0  0  0  0  0  0  0
    5.4037    0.7213    0.9008 C   0  0  0  0  0  0  0  0  0  0  0  0
   -0.3503   -0.9860   -0.4703 C   0  0  0  0  0  0  0  0  0  0  0  0
   -1.6963   -0.7456   -0.2988 C   0  0  0  0  0  0  0  0  0  0  0  0
   -7.1101   -1.4891   -0.0273 Cl  0  0  0  0  0  0  0  0  0  0  0  0
   -5.8475    2.2404    0.2978 H   0  0  0  0  0  0  0  0  0  0  0  0
   -6.1596    0.7681   -0.4066 H   0  0  0  0  0  0  0  0  0  0  0  0
   -6.0636    2.1417   -1.3503 H   0  0  0  0  0  0  0  0  0  0  0  0
   -3.6706    2.3721   -0.8317 H   0  0  0  0  0  0  0  0  0  0  0  0
   -4.0118    0.8484   -1.6079 H   0  0  0  0  0  0  0  0  0  0  0  0
   -4.1372   -0.2679    0.6501 H   0  0  0  0  0  0  0  0  0  0  0  0
   -3.7730    1.2503    1.4184 H   0  0  0  0  0  0  0  0  0  0  0  0
   -1.5249    2.2129    1.2842 H   0  0  0  0  0  0  0  0  0  0  0  0
    0.8668    1.8012    0.9831 H   0  0  0  0  0  0  0  0  0  0  0  0
    2.2494   -1.2157   -0.8264 H   0  0  0  0  0  0  0  0  0  0  0  0
    2.8075    1.1383    0.9986 H   0  0  0  0  0  0  0  0  0  0  0  0
    4.2007   -1.4409   -1.3927 H   0  0  0  0  0  0  0  0  0  0  0  0
    6.5909   -1.8715   -1.6671 H   0  0  0  0  0  0  0  0  0  0  0  0
    8.2336   -0.6452   -0.3104 H   0  0  0  0  0  0  0  0  0  0  0  0
    7.4706    1.0179    1.3329 H   0  0  0  0  0  0  0  0  0  0  0  0
    5.0717    1.4496    1.6217 H   0  0  0  0  0  0  0  0  0  0  0  0
   -0.0240   -1.8830   -0.9695 H   0  0  0  0  0  0  0  0  0  0  0  0
   -2.4225   -1.4500   -0.6685 H   0  0  0  0  0  0  0  0  0  0  0  0
  1  2  1  0  0  0  0
  2  3  1  0  0  0  0
  3  4  1  0  0  0  0
  4  5  4  0  0  0  0
  5  6  4  0  0  0  0
  6  7  4  0  0  0  0
  7  8  1  0  0  0  0
  8  9  2  0  0  0  0
  9 10  1  0  0  0  0
 10 11  4  0  0  0  0
 11 12  4  0  0  0  0
 12 13  4  0  0  0  0
 13 14  4  0  0  0  0
 10 15  4  0  0  0  0
 14 15  4  0  0  0  0
  7 16  4  0  0  0  0
  4 17  4  0  0  0  0
 16 17  4  0  0  0  0
  1 19  1  0  0  0  0
  1 20  1  0  0  0  0
  1 21  1  0  0  0  0
  2 22  1  0  0  0  0
  2 23  1  0  0  0  0
  3 24  1  0  0  0  0
  3 25  1  0  0  0  0
  5 26  1  0  0  0  0
  6 27  1  0  0  0  0
  8 28  1  0  0  0  0
  9 29  1  0  0  0  0
 11 30  1  0  0  0  0
 12 31  1  0  0  0  0
 13 32  1  0  0  0  0
 14 33  1  0  0  0  0
 15 34  1  0  0  0  0
 16 35  1  0  0  0  0
 17 36  1  0  0  0  0
M  END
