21
 xtb: 6.5.1 (fef0646)
N           -4.07961692334074        0.94710210213142       -1.18275553215833
C           -4.18968849192983       -0.34870540380607       -0.44748595708390
C           -3.36448458143737       -0.38094400934619        0.84044747172982
C           -1.88711680580824       -0.26335909564721        0.60436053407122
C           -1.19971815041156       -1.28297701151595       -0.04226413615523
C            0.15697451794014       -1.17864334205770       -0.27802765385203
C            0.83973237224552       -0.05753085643172        0.14119529419579
Br           2.70687324045142        0.06278859187634       -0.17772452878296
C            0.17757897583117        0.96115310725834        0.79013123326396
C           -1.18238751248319        0.86096173555743        1.01563066269307
H           -4.38985352976125        1.75965345386178       -0.50948741410133
H           -4.61098148466264        1.04918500831799       -1.99396618246485
H           -3.08180602257035        1.20612492652874       -1.36828831634697
H           -3.86500477581825       -1.10003266072163       -1.16305782832291
H           -5.24344933992247       -0.51751031759184       -0.25630563316119
H           -3.56373562914718       -1.36871348971345        1.33328743368750
H           -3.69053424255800        0.35880614718154        1.52475936990510
H           -1.69959548616491       -2.22994205832589       -0.27912279020877
H            0.72395878321521       -2.02148104882934       -0.68988340433593
H            0.68691096804542        1.86468589632398        1.01399940842140
H           -1.73645611793935        1.66742082611029        1.42526122946231
