 xtb: 6.5.1 (fef0646)
          01242310053D

 21 21  0     0  0            999 V2000
   -4.0576    1.0869   -1.0416 N   0  0  0  0  0  0  0  0  0  0  0  0
   -4.1867   -0.2857   -0.4745 C   0  0  0  0  0  0  0  0  0  0  0  0
   -3.3590   -0.4822    0.7952 C   0  0  0  0  0  0  0  0  0  0  0  0
   -1.8820   -0.3384    0.5683 C   0  0  0  0  0  0  0  0  0  0  0  0
   -1.1559   -1.3664   -0.0174 C   0  0  0  0  0  0  0  0  0  0  0  0
    0.2034   -1.2353   -0.2366 C   0  0  0  0  0  0  0  0  0  0  0  0
    0.8441   -0.0743    0.1260 C   0  0  0  0  0  0  0  0  0  0  0  0
    2.6897    0.1003   -0.1652 Br  0  0  0  0  0  0  0  0  0  0  0  0
    0.1434    0.9580    0.7035 C   0  0  0  0  0  0  0  0  0  0  0  0
   -1.2159    0.8273    0.9228 C   0  0  0  0  0  0  0  0  0  0  0  0
   -4.3799    1.7982   -0.3688 H   0  0  0  0  0  0  0  0  0  0  0  0
   -4.6165    1.1994   -1.9013 H   0  0  0  0  0  0  0  0  0  0  0  0
   -3.0775    1.3013   -1.2780 H   0  0  0  0  0  0  0  0  0  0  0  0
   -3.8802   -1.0171   -1.2318 H   0  0  0  0  0  0  0  0  0  0  0  0
   -5.2465   -0.4910   -0.2741 H   0  0  0  0  0  0  0  0  0  0  0  0
   -3.5558   -1.4687    1.2313 H   0  0  0  0  0  0  0  0  0  0  0  0
   -3.6792    0.2392    1.5544 H   0  0  0  0  0  0  0  0  0  0  0  0
   -1.6587   -2.2788   -0.2943 H   0  0  0  0  0  0  0  0  0  0  0  0
    0.7707   -2.0374   -0.6853 H   0  0  0  0  0  0  0  0  0  0  0  0
    0.6647    1.8606    0.9868 H   0  0  0  0  0  0  0  0  0  0  0  0
   -1.7642    1.6328    1.3836 H   0  0  0  0  0  0  0  0  0  0  0  0
  1  2  1  0  0  0  0
  2  3  1  0  0  0  0
  3  4  1  0  0  0  0
  4  5  4  0  0  0  0
  5  6  4  0  0  0  0
  6  7  4  0  0  0  0
  7  8  1  0  0  0  0
  7  9  4  0  0  0  0
  4 10  4  0  0  0  0
  9 10  4  0  0  0  0
  1 11  1  0  0  0  0
  1 12  1  0  0  0  0
  1 13  1  0  0  0  0
  2 14  1  0  0  0  0
  2 15  1  0  0  0  0
  3 16  1  0  0  0  0
  3 17  1  0  0  0  0
  5 18  1  0  0  0  0
  6 19  1  0  0  0  0
  9 20  1  0  0  0  0
 10 21  1  0  0  0  0
M  CHG  1   1   1
M  END
