  16

 O          2.8250343305       -0.5772112073       -0.5644322454
 C          1.6230974044       -1.0618575270        0.0010422296
 C          1.0257245439       -0.1225523802        1.0439350638
 C          0.8146864779        1.2843920828        0.5008741420
 N         -0.0954111324        1.3136960224       -0.6783639733
 Cl        -2.9745697804       -0.5045694106        0.1704662526
 H          3.5116394576       -0.4750504085        0.1237001961
 H          1.8022608254       -2.0630276485        0.4156361196
 H          0.9203957114       -1.2059117197       -0.8275401393
 H          1.6819445500       -0.0894615068        1.9210790896
 H          0.0717891102       -0.5241334621        1.4049266463
 H          1.7807405616        1.7198929195        0.2196238358
 H          0.4152147350        1.9363474383        1.2877124684
 H          0.3335399607        0.8382237065       -1.4829377504
 H         -0.3265451141        2.2740554480       -0.9669373166
 H         -0.9801963137        0.8232713108       -0.4636524028
          16
        -23.09059566
 O          1.8313296965       -1.2648301421       -0.7110025120
 C          2.3108708797       -0.6498676083        0.4727638959
 C          1.3022597832        0.3156857076        1.0907134063
 C          0.9660543573        1.4765035914        0.1636880507
 N          0.1903581480        1.0351980538       -1.0262137537
 Cl        -2.8125765320       -0.3371975719        0.1315086230
 H          2.4778808859       -1.9043637040       -1.0686030997
 H          3.2387586693       -0.1139126082        0.2354592830
 H          2.5757663551       -1.4355574991        1.1924572357
 H          1.6829226768        0.6923846209        2.0482619498
 H          0.3841675099       -0.2317494905        1.3276898867
 H          1.8916284450        1.9682635078       -0.1583561743
 H          0.3962962983        2.2449118786        0.7011804149
 H          0.7008689597        0.2772396221       -1.5029874581
 H          0.0218694713        1.7963816250       -1.6980832266
 H         -0.7228542866        0.6463310936       -0.7375768908
          16
        -23.09334190
 O          1.1221272813       -1.3945705343       -0.8313930206
 C          1.8948085132       -1.0468506566        0.2996111298
 C          1.3264054117        0.1267609304        1.0924555363
 C          1.3079095448        1.4206245637        0.2894581879
 N          0.4593218504        1.3237548287       -0.9283743064
 Cl        -2.5439951753       -0.1672967805        0.1449750821
 H          0.1865447628       -1.5257991478       -0.5692889510
 H          2.9026636899       -0.8084316828       -0.0612326933
 H          2.0015087566       -1.9398829603        0.9295656947
 H          1.8992537132        0.2660880486        2.0176082841
 H          0.3073171444       -0.1165441680        1.4104589735
 H          2.3303306442        1.6911161805        0.0002725450
 H          0.9511886354        2.2483536842        0.9150659492
 H          0.8399051232        0.6100667044       -1.5690931942
 H          0.3932265675        2.2153339851       -1.4380942339
 H         -0.4953278956        1.0208799031       -0.6742014704
