  16

 O          3.6060908285        1.7575980107        0.0926610157
 C          2.6341754824        0.7628570148       -0.1560340776
 C          3.0079124956       -0.1657793354       -1.3194654189
 C          4.4496921250       -0.6523688818       -1.2257814169
 N          4.6704641186       -1.3711147695        0.0450283577
 Cl         2.4069790931       -3.3819868092        0.5519934054
 H          3.5957869715        2.4000986075       -0.6292493075
 H          1.6539775227        1.2142694684       -0.3492536384
 H          2.5464010737        0.1870761314        0.7683011217
 H          2.8720509150        0.3505732103       -2.2693534510
 H          2.3333176582       -1.0213182105       -1.2912347620
 H          5.1322049132        0.1972546302       -1.2697824431
 H          4.6498740583       -1.3274234563       -2.0561038667
 H          4.6104813207       -0.7130496144        0.8262508643
 H          5.5786846403       -1.8385964742        0.0605643335
 H          3.9212367832       -2.0933895219        0.1894292836
