15
 xtb: 6.5.1 (fef0646)
N            0.57108555082169       -1.64772974985117       -0.52903721754071
C            1.79006137994801       -1.11443340546482        0.13683638065405
C            2.18924268872250        0.26550855535313       -0.38218771458357
C            1.19433040130171        1.35728362253366       -0.01901724966609
Cl          -2.41285724569246        0.58906706412043        0.37101581678928
H            0.58174923650660       -1.61259823948332       -1.52935259886036
H           -0.30713040407294       -0.95900163478451       -0.28435180940832
H            0.22486999047592       -2.53354063622050       -0.18583900980684
H            2.53361121107847       -1.84095676515032       -0.02447030839458
H            1.60025477084003       -1.05835674290909        1.22781302442232
H            2.30083981730925        0.21249275718751       -1.46804486767339
H            3.17413898194715        0.50829744584867        0.01234331646999
H            0.22274564056057        1.21633864842904       -0.47533094473595
H            1.55667546364858        2.35549187363371       -0.36302489733216
H            1.05332929319985        1.44283371286204        1.05731975392361
