29
2.812
N            3.49263   0.02339  -1.55783
C            2.10681  -0.34429  -1.15141
C            1.73316   0.23823   0.20584
O            0.42053  -0.12804   0.63206
C           -0.63345   0.51121  -0.01430
C           -0.50175   1.55408  -0.91502
C           -1.61199   2.13888  -1.52008
C           -2.87446   1.70027  -1.24199
C           -3.07816   0.64276  -0.33090
C           -4.36851   0.15963  -0.01766
C           -4.53121  -0.86493   0.86729
C           -3.41964  -1.45408   1.47955
C           -2.16087  -1.00889   1.19653
C           -1.95588   0.04531   0.28900
Cl           5.67804  -1.15516   0.93180
H            4.17483  -0.31145  -0.85631
H            3.59803   1.04394  -1.62624
H            3.74956  -0.38440  -2.46675
H            2.00308  -1.43428  -1.11501
H            1.39292  -0.01259  -1.91229
H            1.82908   1.32817   0.22591
H            2.42449  -0.13195   0.97117
H            0.47513   1.93017  -1.15703
H           -1.47016   2.94893  -2.21715
H           -3.72772   2.15628  -1.71429
H           -5.22381   0.61271  -0.48943
H           -5.52046  -1.22560   1.09829
H           -3.56087  -2.26339   2.17727
H           -1.30109  -1.45821   1.66333
