 xtb: 6.5.1 (fef0646)
          01242317143D

 29 29  0     0  0            999 V2000
    3.4926    0.0234   -1.5578 N   0  0  0  0  0  0  0  0  0  0  0  0
    2.1068   -0.3443   -1.1514 C   0  0  0  0  0  0  0  0  0  0  0  0
    1.7332    0.2382    0.2058 C   0  0  0  0  0  0  0  0  0  0  0  0
    0.4205   -0.1280    0.6321 O   0  0  0  0  0  0  0  0  0  0  0  0
   -0.6334    0.5112   -0.0143 C   0  0  0  0  0  0  0  0  0  0  0  0
   -0.5017    1.5541   -0.9150 C   0  0  0  0  0  0  0  0  0  0  0  0
   -1.6120    2.1389   -1.5201 C   0  0  0  0  0  0  0  0  0  0  0  0
   -2.8745    1.7003   -1.2420 C   0  0  0  0  0  0  0  0  0  0  0  0
   -3.0782    0.6428   -0.3309 C   0  0  0  0  0  0  0  0  0  0  0  0
   -4.3685    0.1597   -0.0176 C   0  0  0  0  0  0  0  0  0  0  0  0
   -4.5312   -0.8649    0.8673 C   0  0  0  0  0  0  0  0  0  0  0  0
   -3.4196   -1.4541    1.4796 C   0  0  0  0  0  0  0  0  0  0  0  0
   -2.1609   -1.0089    1.1965 C   0  0  0  0  0  0  0  0  0  0  0  0
   -1.9559    0.0453    0.2890 C   0  0  0  0  0  0  0  0  0  0  0  0
    5.6780   -1.1552    0.9318 Cl  0  0  0  0  0  0  0  0  0  0  0  0
    4.1748   -0.3115   -0.8563 H   0  0  0  0  0  0  0  0  0  0  0  0
    3.5980    1.0439   -1.6263 H   0  0  0  0  0  0  0  0  0  0  0  0
    3.7495   -0.3844   -2.4668 H   0  0  0  0  0  0  0  0  0  0  0  0
    2.0031   -1.4343   -1.1150 H   0  0  0  0  0  0  0  0  0  0  0  0
    1.3929   -0.0126   -1.9123 H   0  0  0  0  0  0  0  0  0  0  0  0
    1.8291    1.3282    0.2259 H   0  0  0  0  0  0  0  0  0  0  0  0
    2.4245   -0.1320    0.9712 H   0  0  0  0  0  0  0  0  0  0  0  0
    0.4751    1.9302   -1.1570 H   0  0  0  0  0  0  0  0  0  0  0  0
   -1.4702    2.9489   -2.2172 H   0  0  0  0  0  0  0  0  0  0  0  0
   -3.7277    2.1563   -1.7143 H   0  0  0  0  0  0  0  0  0  0  0  0
   -5.2238    0.6127   -0.4894 H   0  0  0  0  0  0  0  0  0  0  0  0
   -5.5205   -1.2256    1.0983 H   0  0  0  0  0  0  0  0  0  0  0  0
   -3.5609   -2.2634    2.1773 H   0  0  0  0  0  0  0  0  0  0  0  0
   -1.3011   -1.4582    1.6633 H   0  0  0  0  0  0  0  0  0  0  0  0
  1  2  1  0  0  0  0
  2  3  1  0  0  0  0
  3  4  1  0  0  0  0
  4  5  1  0  0  0  0
  5  6  4  0  0  0  0
  6  7  4  0  0  0  0
  7  8  2  0  0  0  0
  8  9  4  0  0  0  0
  9 10  4  0  0  0  0
 10 11  2  0  0  0  0
 11 12  4  0  0  0  0
 12 13  2  0  0  0  0
  5 14  4  0  0  0  0
  9 14  4  0  0  0  0
 13 14  4  0  0  0  0
  1 16  1  0  0  0  0
  1 17  1  0  0  0  0
  1 18  1  0  0  0  0
  2 19  1  0  0  0  0
  2 20  1  0  0  0  0
  3 21  1  0  0  0  0
  3 22  1  0  0  0  0
  6 23  1  0  0  0  0
  7 24  1  0  0  0  0
  8 25  1  0  0  0  0
 10 26  1  0  0  0  0
 11 27  1  0  0  0  0
 12 28  1  0  0  0  0
 13 29  1  0  0  0  0
M  END
