 xtb: 6.5.1 (fef0646)
          01242317103D

 21 19  0     0  0            999 V2000
   -1.1696   -1.7300   -0.5644 N   0  0  0  0  0  0  0  0  0  0  0  0
   -0.1099   -1.8670    0.4773 C   0  0  0  0  0  0  0  0  0  0  0  0
    0.7702   -0.6247    0.5903 C   0  0  0  0  0  0  0  0  0  0  0  0
    1.6166   -0.3664   -0.6562 C   0  0  0  0  0  0  0  0  0  0  0  0
    2.4851    0.8923   -0.5576 C   0  0  0  0  0  0  0  0  0  0  0  0
    3.5766    0.7932    0.4986 C   0  0  0  0  0  0  0  0  0  0  0  0
   -2.8399    1.2719    0.1164 Cl  0  0  0  0  0  0  0  0  0  0  0  0
   -1.8169   -2.5348   -0.5701 H   0  0  0  0  0  0  0  0  0  0  0  0
   -0.7627   -1.6510   -1.5063 H   0  0  0  0  0  0  0  0  0  0  0  0
   -1.7261   -0.8772   -0.3988 H   0  0  0  0  0  0  0  0  0  0  0  0
    0.5116   -2.7433    0.2586 H   0  0  0  0  0  0  0  0  0  0  0  0
   -0.5834   -2.0791    1.4445 H   0  0  0  0  0  0  0  0  0  0  0  0
    1.4255   -0.7118    1.4654 H   0  0  0  0  0  0  0  0  0  0  0  0
    0.1404    0.2503    0.7890 H   0  0  0  0  0  0  0  0  0  0  0  0
    0.9582   -0.2931   -1.5303 H   0  0  0  0  0  0  0  0  0  0  0  0
    2.2540   -1.2373   -0.8504 H   0  0  0  0  0  0  0  0  0  0  0  0
    1.8428    1.7584   -0.3515 H   0  0  0  0  0  0  0  0  0  0  0  0
    2.9406    1.1029   -1.5351 H   0  0  0  0  0  0  0  0  0  0  0  0
    3.1590    0.6798    1.5002 H   0  0  0  0  0  0  0  0  0  0  0  0
    4.2130    1.6810    0.5139 H   0  0  0  0  0  0  0  0  0  0  0  0
    4.2223   -0.0684    0.3189 H   0  0  0  0  0  0  0  0  0  0  0  0
  1  2  1  0  0  0  0
  2  3  1  0  0  0  0
  3  4  1  0  0  0  0
  4  5  1  0  0  0  0
  5  6  1  0  0  0  0
  1  8  1  0  0  0  0
  1  9  1  0  0  0  0
  1 10  1  0  0  0  0
  2 11  1  0  0  0  0
  2 12  1  0  0  0  0
  3 13  1  0  0  0  0
  3 14  1  0  0  0  0
  4 15  1  0  0  0  0
  4 16  1  0  0  0  0
  5 17  1  0  0  0  0
  5 18  1  0  0  0  0
  6 19  1  0  0  0  0
  6 20  1  0  0  0  0
  6 21  1  0  0  0  0
M  END
