21
1.411
N           -0.75907  -0.75685   0.53572
C            0.15328  -0.62389  -0.63685
C            1.47228  -1.36878  -0.44866
C            2.30841  -0.86884   0.73253
C            2.72233   0.60288   0.63514
C            3.60977   0.90172  -0.56445
Cl          -3.80121   0.87615  -0.12871
H           -0.95133  -1.74951   0.74329
H           -1.66548  -0.28890   0.37071
H           -0.34592  -0.33869   1.38075
H            0.34533   0.43698  -0.83373
H           -0.35977  -0.99156  -1.53480
H            2.06777  -1.30845  -1.36795
H            1.25869  -2.43747  -0.32060
H            3.21223  -1.48446   0.82848
H            1.75386  -1.03711   1.66395
H            3.24151   0.89959   1.55715
H            1.82701   1.23632   0.60510
H            3.93265   1.94510  -0.58549
H            3.09279   0.70588  -1.50518
H            4.50807   0.28160  -0.55495
