21
 xtb: 6.5.1 (fef0646)
N           -0.69589124988215       -0.81734049537503        0.55756280667177
C            0.19913913953913       -0.66050846782145       -0.62513271437655
C            1.52949155700415       -1.38786705578870       -0.44928145702043
C            2.36503918692636       -0.88133846528754        0.72948962987928
C            2.75521076009423        0.59741287296221        0.63732204307115
C            3.62786173958974        0.91660186266326       -0.56815965716274
Cl          -3.99421313199523        0.96167471241180       -0.14976168799160
H           -0.92969763083234       -1.76703724388271        0.74794107364957
H           -1.64959160855143       -0.30861314322371        0.38005031993603
H           -0.32765318571117       -0.35502772994868        1.38621894571141
H            0.35407727009298        0.42737220092289       -0.82932112233849
H           -0.34683890275515       -1.00311023293572       -1.53079641652202
H            2.08249624396925       -1.31022565879783       -1.36904834865467
H            1.27995057052652       -2.44407511298388       -0.32199574537724
H            3.23162305486540       -1.48408507897442        0.82489313251027
H            1.77296066266668       -1.04480732887637        1.66393152898922
H            3.25207206467573        0.89876083909033        1.55693592083302
H            1.83382181362886        1.23103844399421        0.60897410931739
H            3.93383141325365        1.95067598895055       -0.58530118360448
H            3.09645438400485        0.71010084239638       -1.50537650939895
H            4.51577144577743        0.28939670870642       -0.55958324556648
