13
 xtb: 6.5.1 (fef0646)
N           -0.29517601013006       -1.68924202246075        0.29585418554032
C            0.97176948037170       -1.06064164820876       -0.17992505187032
C            1.23784334673919        0.27445940293142        0.50729748314170
C            2.39451775727017        0.95497373990960        0.03580779626989
N            3.34384274282285        1.49643719631282       -0.35262433140058
Cl          -2.77732803815414        0.18633239844489       -0.14852440420290
H           -0.37064173346099       -2.66080102652960       -0.15738636984483
H           -1.05306926532047       -1.16333260259414        0.16534948441349
H           -0.14313715764845       -1.94415549337611        1.32944777508878
H            0.94455088204815       -0.92949981380802       -1.26465060761399
H            1.89022269506457       -1.72370738694236       -0.03009068533086
H            1.33149029229038        0.11566104900094        1.58598793585891
H            0.36820362452644        0.90206409478367        0.36306540086433
