21
 xtb: 6.5.1 (fef0646)
N           -0.66093795628478        0.36401408127768        0.42863714799478
C           -0.00770890786501       -0.85820631090829       -0.12481578467450
C            1.50136574864914       -0.82312322369663        0.08770220433404
C            2.18283988841544        0.30168617590451       -0.69132231245486
C            3.70489428526282        0.31992159350409       -0.52408234879444
C            4.14738687146735        0.65041025742858        0.89410493059988
Cl          -4.44634688628320       -0.03390999230071       -0.09568570833570
H           -1.75897298024091        0.27771940469319        0.28313373263799
H           -0.42396104532885        1.20123924190296       -0.07138681442753
H           -0.54792135208091        0.46133101830178        1.40972647822299
H           -0.24747708119529       -0.96059169086784       -1.20385801108248
H           -0.46224586826923       -1.75997134534996        0.33244626949087
H            1.92511429836445       -1.77028748708629       -0.17073027122038
H            1.66529206659563       -0.68608838301300        1.16799129758794
H            1.75540615446949        1.27964805630412       -0.37779862168644
H            1.89397659842755        0.21322937736210       -1.74800641190299
H            4.12218562906953        1.03997047024151       -1.22445728036730
H            4.08338776446886       -0.65611438843333       -0.82770405207933
H            3.78539350241927       -0.10143454378613        1.60864359144452
H            3.73617463957012        1.61067166906560        1.21933711271828
H            5.21891843316686        0.69349441086535        0.97644366665830
