25
0.376
N           -3.28096   0.07258  -0.62669
C           -2.15161   0.53850  -1.47604
C           -0.81496   0.20906  -0.88734
C           -0.48450   0.65086   0.40593
C            0.72908   0.36587   0.96119
C            0.10349  -0.52332  -1.59553
C            1.36948  -0.83757  -1.05289
C            1.68896  -0.38441   0.24795
C            2.95527  -0.69846   0.79074
C            3.85808  -1.42760   0.07210
C            3.54213  -1.87623  -1.21595
C            2.32744  -1.59010  -1.76899
Cl          -3.11686   1.96668   2.32314
H           -4.19962   0.24051  -1.06945
H           -3.28033   0.56214   0.28795
H           -3.20171  -0.93811  -0.43506
H           -2.22160   1.62173  -1.62980
H           -2.23392   0.09158  -2.47370
H           -1.21366   1.21342   0.96567
H            0.96769   0.70921   1.95443
H           -0.13925  -0.86809  -2.58647
H            3.19842  -0.35334   1.78219
H            4.82189  -1.66130   0.49653
H            4.26542  -2.45150  -1.77239
H            2.08464  -1.93566  -2.76051
