  28

 N         -3.6025480977        1.6829515222       -0.7431931923
 C         -2.2022709397        1.2028409633       -0.9234289258
 C         -1.6000018054        0.6818840013        0.3764627610
 C         -0.2044833568        0.1554694617        0.2074127013
 C          0.8779628563        0.9713063557        0.3958987382
 C          2.1973439258        0.4941874842        0.2222642232
 C          3.3282095932        1.3186188502        0.4242700455
 C          4.5868768867        0.8244652307        0.2549731192
 C          4.7807207559       -0.5110984903       -0.1240236172
 C          3.7129585559       -1.3325313567       -0.3295504730
 C          2.3932609130       -0.8532691135       -0.1627074964
 C          1.2611706002       -1.6740844690       -0.3664810796
 C          0.0040745565       -1.1806433283       -0.1874071503
 Cl        -5.3221630643       -1.0871338525        0.5669209482
 H         -4.0197376227        2.0076689054       -1.6263919146
 H         -3.6427104498        2.4560886290       -0.0658056368
 H         -4.1949569638        0.9197820602       -0.3734414908
 H         -1.5779073446        2.0096314887       -1.3247034890
 H         -2.1761930120        0.4118751835       -1.6820029458
 H         -2.2378155896       -0.1074381475        0.7890531470
 H         -1.6031274307        1.4753345144        1.1312198916
 H          0.7269833934        1.9971176752        0.6829566672
 H          3.1798742249        2.3446261155        0.7158872359
 H          5.4418165771        1.4618594651        0.4135855485
 H          5.7827846165       -0.8877874845       -0.2520199253
 H          3.8620579969       -2.3586851924       -0.6204084063
 H          1.4068043520       -2.6982060975       -0.6660858408
 H         -0.8531249613       -1.8129130734       -0.3480345524
          28
        -40.33583299
 N         -2.6349280433       -0.7570113132       -1.5107353420
 C         -2.7547091096       -1.8670280803       -0.5221267111
 C         -2.0062411828       -1.5654404871        0.7746055427
 C         -0.5574399066       -1.2487867298        0.5506702437
 C         -0.1488355420        0.0465002777        0.3864034071
 C          1.2047831897        0.3656778135        0.1389705093
 C          1.6432999187        1.6989015108       -0.0303517763
 C          2.9565561985        1.9720067033       -0.2703006479
 C          3.8942993942        0.9332496491       -0.3536233662
 C          3.5049502569       -0.3633139652       -0.1967540088
 C          2.1505289681       -0.6830525733        0.0531547183
 C          1.7059725040       -2.0147195767        0.2155031684
 C          0.3920546403       -2.2846515663        0.4541050224
 Cl        -2.9179218790        2.2575781016        0.2979743754
 H         -3.2430253491       -0.8916516361       -2.3308879577
 H         -1.6655723715       -0.6712628933       -1.8459552342
 H         -2.8792062830        0.1455166527       -1.0689691844
 H         -2.3681946019       -2.7915002354       -0.9671014665
 H         -3.8134758095       -2.0609630078       -0.3106768775
 H         -2.0892467513       -2.4064904682        1.4730575544
 H         -2.4796351529       -0.7181088634        1.2825187002
 H         -0.8733011663        0.8410100101        0.4333226014
 H          0.9221039496        2.4961314097        0.0330433304
 H          3.2799232329        2.9925435540       -0.3976435928
 H          4.9298355337        1.1653411917       -0.5439476969
 H          4.2255455832       -1.1609693955       -0.2623262866
 H          2.4225044302       -2.8156176324        0.1453730876
 H          0.0612135855       -3.3031478097        0.5701891988
          28
        -40.33593059
 N         -2.6360879094       -0.7468358756        1.5184912490
 C         -2.7415926544       -1.8708948722        0.5443772955
 C         -2.0008900673       -1.5751949253       -0.7580131740
 C         -0.5518450755       -1.2524677313       -0.5442866880
 C         -0.1490392951        0.0433325133       -0.3699172573
 C          1.2047064233        0.3673308623       -0.1293893852
 C          1.6368311072        1.7009614516        0.0529122372
 C          2.9502070815        1.9786979980        0.2868883662
 C          3.8944203208        0.9444560912        0.3508288731
 C          3.5114303821       -0.3523452013        0.1807592184
 C          2.1570630459       -0.6768411871       -0.0632017267
 C          1.7187048389       -2.0091191733       -0.2370287784
 C          0.4043150654       -2.2838608009       -0.4673281813
 Cl        -2.9356660948        2.2442550431       -0.3200452619
 H         -3.2364787903       -0.8828361889        2.3442156316
 H         -2.8981366300        0.1435806909        1.0688853609
 H         -1.6634284082       -0.6391947258        1.8469084796
 H         -3.7981040949       -2.0827540983        0.3381159232
 H         -2.3407706713       -2.7838407836        1.0000419079
 H         -2.4798495744       -0.7327201199       -1.2690945655
 H         -2.0850934001       -2.4209968700       -1.4500842394
 H         -0.8781057277        0.8342772277       -0.4044843410
 H          0.9106153030        2.4947011186        0.0048274452
 H          3.2686476380        2.9994294831        0.4247085977
 H          4.9298488886        1.1801017106        0.5373484709
 H          4.2369893968       -1.1465369741        0.2319891891
 H          2.4402762119       -2.8066534718       -0.1818384904
 H          0.0783116382       -3.3029831180       -0.5913596985
