39
0.439
N            6.57883   0.73677   2.72969
C            7.36566   1.20968   1.55406
C            7.38367   0.20049   0.40430
C            6.06886   0.03956  -0.27958
C            5.88496  -0.25424  -1.60236
C            4.53204  -0.36569  -1.98925
C            3.63639  -0.15970  -0.96101
C            2.21519  -0.20677  -1.04118
C            1.45787  -0.47153  -2.17417
C            0.08211  -0.45240  -1.95472
C           -0.27815  -0.17222  -0.64353
C           -1.60117  -0.09145  -0.14334
C           -1.95997   0.19035   1.16811
C           -3.33565   0.20773   1.38815
C           -4.09252  -0.05973   0.25686
C           -5.51374  -0.10531   0.19770
C           -6.27192  -0.37055  -0.92189
C           -7.66157  -0.34991  -0.68437
C           -7.98806  -0.07157   0.60668
S           -6.57567   0.17000   1.55133
S           -3.03625  -0.33363  -1.09128
S            1.15621   0.06720   0.30487
S            4.53247   0.17615   0.49145
H            5.60990   0.53050   2.45324
H            6.55026   1.43815   3.48628
H            6.97935  -0.13015   3.11928
H            8.38918   1.43352   1.88051
H            6.95204   2.16039   1.19713
H            7.70563  -0.77580   0.78235
H            8.13311   0.49309  -0.34076
H            6.70744  -0.39279  -2.28875
H            4.22645  -0.59433  -2.99892
H            1.89673  -0.67419  -3.13898
H           -0.64685  -0.63838  -2.72853
H           -1.23082   0.37781   1.94125
H           -3.78218   0.41051   2.34971
H           -5.83472  -0.57471  -1.88755
H           -8.39567  -0.53772  -1.45547
H           -8.98667  -0.00777   0.99882
