34
 xtb: 6.5.1 (fef0646)
N           -4.18285225437926        1.28648853814031        0.01033173873642
C           -3.80693255743881        0.86227000697879        1.38905270959001
C           -2.74928310036058       -0.23895421644853        1.38305128088565
C           -1.52006431609635        0.14512878941202        0.61298072945264
C           -0.50142604803707        0.87155377018743        1.21606974181218
C            0.60671843775552        1.25946324972869        0.49410659929973
C           -1.40903664073801       -0.16891574748581       -0.73575943399978
C           -0.30211328878686        0.21657869261040       -1.46021633389601
C            0.72455327677230        0.93189715912788       -0.85289988743621
N            1.85439472173370        1.29900321262809       -1.58454931561113
N            3.01967523889755        1.05188896662816       -1.23223783963290
C            3.35099549307471        0.24609658460401       -0.14100787377331
C            2.83046036533082       -1.03850140607545       -0.01676904039926
C            3.13911845147486       -1.81653962907481        1.07873627711543
C            3.97534830901395       -1.32484109716061        2.06323817152927
C            4.50491818219454       -0.05346193473158        1.94801586331275
C            4.19744897210557        0.72676989095894        0.85359409843287
Cl          -4.43564203075821       -1.74014140501085       -1.91433255935658
H           -4.98502022307438        1.90486016840634       -0.03256885127201
H           -4.43416072260148        0.41660330117769       -0.56783862206218
H           -3.39231839521047        1.70441593058921       -0.48665331472471
H           -4.70218829169708        0.51873634375240        1.92102956719704
H           -3.44855293889166        1.73860605730121        1.91968338729637
H           -3.15034542961311       -1.15742659300487        0.96810884024852
H           -2.45614311737556       -0.48507613350988        2.42040597151808
H           -0.60082151405034        1.18277139416584        2.24633633698533
H            1.38329183364540        1.86696664809942        0.94489142801838
H           -2.18268334416017       -0.74863531891699       -1.19533043837310
H           -0.19106525696564       -0.06997400545237       -2.48984805690012
H            2.18522279941360       -1.40535197586984       -0.81283838074087
H            2.72524864837167       -2.82160728121889        1.13438521493089
H            4.19818579332275       -1.95677070811224        2.90615074484543
H            5.13224808742526        0.31262616470507        2.72985708316362
H            4.58166428671658        1.71997447424402        0.77784787882837
