50
 xtb: 6.5.1 (fef0646)
N           -7.55090855800022        1.98694182559052       -1.03685021946195
C           -8.15715661216603        1.82248182533980        0.31285200031322
C           -7.64879908840882        0.56887546641873        1.01925924059319
C           -6.16586161131897        0.54049539401085        1.13434848013039
C           -5.43993162684337        1.09468580395881        2.14181030333436
C           -4.03814239126301        0.93605199325106        1.98759622018311
C           -3.68408307444405        0.25762252112261        0.85446429203429
C           -2.33767227813145       -0.04761248390616        0.44441219908758
C           -1.98950223220728       -0.76466763180606       -0.66781892826391
C           -0.59202957663354       -0.93502792685492       -0.85025355233174
C           -0.04175975618370       -1.74090354658327       -1.97425929355344
C            0.15917559825660       -0.30933074056794        0.12830078269609
C            1.60772159095440       -0.23578554296967        0.26048430236867
C            2.18461969298860       -0.18534012448857        1.51877111437343
C            3.56529229152430       -0.11307750511526        1.71895933774812
C            4.47312069510039       -0.05476852667379        0.67589121551176
C            5.90399863801732        0.00592787287168        0.95495667312004
C            6.88929250908873        0.67589891511139        0.25931677073481
C            6.66546555892609        1.53955049481052       -0.93301446145620
C            8.18916803810185        0.48022619042441        0.81677080273506
C            8.20202238614000       -0.29386882507247        1.92595382764960
S            6.61130015232387       -0.80128115534984        2.32839974421288
C            3.94257183206187       -0.09357563549370       -0.66201889942440
N            4.61988791475076       -0.08577871442460       -1.79236842645404
S            3.54778821877924       -0.11122500450001       -3.03739463184039
N            2.16901500562911       -0.15366893010608       -2.14848488206318
C            2.49644126484905       -0.17477052485692       -0.87280033399872
S           -0.90420352483531        0.43069768523945        1.29644111296746
S           -5.10967881246204       -0.17161396301318       -0.05313572037308
Cl          -7.58646113230596       -1.44946657357044       -2.02649484756540
H           -7.68795580641647        1.05242217615965       -1.57464642129181
H           -6.54696643037702        2.09472462109784       -0.98307566774093
H           -7.97808472947564        2.70339798545950       -1.60127664686142
H           -9.25818085004524        1.76945864291331        0.22431467225265
H           -7.93465543395950        2.70147934154910        0.89030915215942
H           -7.97272981663833       -0.33792507199854        0.50023865305661
H           -8.08460065780564        0.49143008552222        2.03562202113195
H           -5.88504297596349        1.67063373311788        2.93926577756902
H           -3.30638534746060        1.37494572948209        2.65100768094496
H           -2.72128465715134       -1.17406007836077       -1.34879616960057
H            0.16181592387167       -1.09791190655203       -2.84213963921180
H           -0.74196223446018       -2.51259613113786       -2.29062007962024
H            0.89217918189023       -2.21993567368927       -1.69417186247286
H            1.53044000843514       -0.22080899862775        2.37309135219611
H            3.94855767010057       -0.10303126303772        2.72526975967428
H            6.71263240588737        0.96182839268327       -1.84225799143433
H            7.41257217185497        2.33757630011488       -0.98235937298106
H            5.68028715600682        2.01851751805848       -0.88006009690344
H            9.07509791663289        0.92561576155553        0.39354796819813
H            9.07534406461937       -0.56479341726700        2.49217664748922
