12
1.189
N            0.18678  -0.61996  -0.17806
C            1.14970   0.47299  -0.44161
C            2.56050  -0.08513  -0.47970
F            2.81667  -0.81625   0.60679
Cl          -3.06326   0.56548   0.14977
H           -0.78708  -0.27677  -0.07826
H            0.44886  -1.10997   0.69163
H            0.20646  -1.31887  -0.93571
H            1.07457   1.22117   0.35593
H            0.90068   0.99029  -1.37626
H            3.31043   0.71200  -0.55302
H            2.69435  -0.72924  -1.35669
