19
 xtb: 6.5.1 (fef0646)
N           -3.13641831997298       -1.80232925010345        0.12401495489707
C           -3.46041338646459       -0.51653959314754       -0.55997873305388
C           -2.88124000557821        0.70280178738508        0.16381786312677
C           -1.39477604263125        0.81099490016888        0.08797070441084
C           -0.69650223183227        1.97121451362096       -0.01539008530519
C            0.72111888413185        1.79379302979243       -0.03841225686895
C            1.10227569036182        0.49995636067608        0.05165668213847
S           -0.26802057946659       -0.51270476381729        0.19472915905410
Cl           4.31108542346497       -0.64056142569545       -0.09137041069633
H           -2.14394398010321       -1.87053538548688        0.26297504516281
H           -3.50633838813791       -2.60819396538662       -0.35693267807162
H           -3.57308815907847       -1.79874785141629        1.10001425584950
H           -4.55980138082979       -0.40067547729948       -0.63813401009517
H           -3.08974787912241       -0.54566739065053       -1.57044417725647
H           -3.17484152206691        0.70113881218637        1.22077460549494
H           -3.30836549825975        1.63509847391005       -0.24794283736239
H           -1.14427091716860        2.93396313523166       -0.02059113342666
H            1.44026378620736        2.58213514979778       -0.09577531269834
H            2.10910005207745        0.09850779107755        0.00807396648476
