19
 xtb: 6.5.1 (fef0646)
N           -3.17018294399962       -1.79134323435274        0.05154305508674
C           -3.50053843518609       -0.46274414308101       -0.54421151074957
C           -2.87382412474993        0.70838188751009        0.22419342504942
C           -1.39053039764900        0.79866042703788        0.09534803536174
C           -0.67951707217791        1.94747907924904       -0.05882273568164
C            0.73504516720188        1.75162139317523       -0.09833080147076
C            1.10113311967929        0.45469750806132        0.02625153779356
S           -0.28694615810222       -0.55280801006322        0.26216385641830
Cl           4.35485020035845       -0.57360929019199       -0.07519783030529
H           -2.15206609667455       -1.87481984405931        0.22904413719165
H           -3.52708135141960       -2.59549391389696       -0.38425143072178
H           -3.56924384270460       -1.80789810274864        1.08610395311298
H           -4.57196155774475       -0.37892111668008       -0.61956237134386
H           -3.11355590557175       -0.51556103943295       -1.57124919838192
H           -3.16079848087016        0.68624633973033        1.24143324295458
H           -3.30656811275690        1.64548313701430       -0.21074183812748
H           -1.13587321243960        2.92863325866432       -0.03849190225767
H            1.44715004764426        2.56682856722350       -0.12166377948398
H            2.10751297586512        0.08204574059776        0.00144812582988
