 xtb: 6.5.1 (fef0646)
          02032320193D

 19 18  0     0  0            999 V2000
   -3.1737   -1.7788    0.1690 N   0  0  0  0  0  0  0  0  0  0  0  0
   -3.4765   -0.5006   -0.5370 C   0  0  0  0  0  0  0  0  0  0  0  0
   -2.8784    0.7201    0.1675 C   0  0  0  0  0  0  0  0  0  0  0  0
   -1.3905    0.8051    0.0870 C   0  0  0  0  0  0  0  0  0  0  0  0
   -0.6732    1.9554    0.0135 C   0  0  0  0  0  0  0  0  0  0  0  0
    0.7404    1.7553   -0.0312 C   0  0  0  0  0  0  0  0  0  0  0  0
    1.0996    0.4539    0.0097 C   0  0  0  0  0  0  0  0  0  0  0  0
   -0.2991   -0.5531    0.0984 S   0  0  0  0  0  0  0  0  0  0  0  0
    4.3493   -0.5761   -0.0495 Cl  0  0  0  0  0  0  0  0  0  0  0  0
   -2.1544   -1.8670    0.2769 H   0  0  0  0  0  0  0  0  0  0  0  0
   -3.5178   -2.6027   -0.3425 H   0  0  0  0  0  0  0  0  0  0  0  0
   -3.5850   -1.7877    1.1113 H   0  0  0  0  0  0  0  0  0  0  0  0
   -4.5640   -0.3917   -0.6318 H   0  0  0  0  0  0  0  0  0  0  0  0
   -3.0947   -0.5471   -1.5636 H   0  0  0  0  0  0  0  0  0  0  0  0
   -3.1734    0.7122    1.2221 H   0  0  0  0  0  0  0  0  0  0  0  0
   -3.3041    1.6402   -0.2504 H   0  0  0  0  0  0  0  0  0  0  0  0
   -1.1328    2.9318   -0.0024 H   0  0  0  0  0  0  0  0  0  0  0  0
    1.4498    2.5678   -0.0890 H   0  0  0  0  0  0  0  0  0  0  0  0
    2.1065    0.0807   -0.0108 H   0  0  0  0  0  0  0  0  0  0  0  0
  1  2  1  0  0  0  0
  2  3  1  0  0  0  0
  3  4  1  0  0  0  0
  4  5  2  0  0  0  0
  5  6  4  0  0  0  0
  6  7  2  0  0  0  0
  4  8  1  0  0  0  0
  7  8  1  0  0  0  0
  1 10  1  0  0  0  0
  1 11  1  0  0  0  0
  1 12  1  0  0  0  0
  2 13  1  0  0  0  0
  2 14  1  0  0  0  0
  3 15  1  0  0  0  0
  3 16  1  0  0  0  0
  5 17  1  0  0  0  0
  6 18  1  0  0  0  0
  7 19  1  0  0  0  0
M  END
