 xtb: 6.5.1 (fef0646)
          01242310093D

 19 18  0     0  0            999 V2000
   -1.2237   -1.5421   -1.2106 N   0  0  0  0  0  0  0  0  0  0  0  0
   -0.5412   -2.2584   -0.0982 C   0  0  0  0  0  0  0  0  0  0  0  0
   -0.0668   -1.2980    0.9894 C   0  0  0  0  0  0  0  0  0  0  0  0
    0.7840   -0.2018    0.4518 C   0  0  0  0  0  0  0  0  0  0  0  0
    0.3345    1.0188    0.0641 C   0  0  0  0  0  0  0  0  0  0  0  0
    1.3614    1.8735   -0.4346 C   0  0  0  0  0  0  0  0  0  0  0  0
    2.5837    1.2961   -0.4236 C   0  0  0  0  0  0  0  0  0  0  0  0
    2.5008   -0.3128    0.2002 S   0  0  0  0  0  0  0  0  0  0  0  0
   -3.2434    0.9349    0.1907 Cl  0  0  0  0  0  0  0  0  0  0  0  0
   -0.5524   -0.9465   -1.7284 H   0  0  0  0  0  0  0  0  0  0  0  0
   -1.9557   -0.9128   -0.8422 H   0  0  0  0  0  0  0  0  0  0  0  0
   -1.6620   -2.1865   -1.8895 H   0  0  0  0  0  0  0  0  0  0  0  0
    0.3138   -2.8157   -0.5004 H   0  0  0  0  0  0  0  0  0  0  0  0
   -1.2151   -3.0128    0.3272 H   0  0  0  0  0  0  0  0  0  0  0  0
    0.4895   -1.8366    1.7663 H   0  0  0  0  0  0  0  0  0  0  0  0
   -0.9333   -0.8566    1.4961 H   0  0  0  0  0  0  0  0  0  0  0  0
   -0.7070    1.3005    0.1165 H   0  0  0  0  0  0  0  0  0  0  0  0
    1.1766    2.8786   -0.7867 H   0  0  0  0  0  0  0  0  0  0  0  0
    3.4950    1.7593   -0.7546 H   0  0  0  0  0  0  0  0  0  0  0  0
  1  2  1  0  0  0  0
  2  3  1  0  0  0  0
  3  4  1  0  0  0  0
  4  5  2  0  0  0  0
  5  6  4  0  0  0  0
  6  7  2  0  0  0  0
  4  8  1  0  0  0  0
  7  8  1  0  0  0  0
  1 10  1  0  0  0  0
  1 11  1  0  0  0  0
  1 12  1  0  0  0  0
  2 13  1  0  0  0  0
  2 14  1  0  0  0  0
  3 15  1  0  0  0  0
  3 16  1  0  0  0  0
  5 17  1  0  0  0  0
  6 18  1  0  0  0  0
  7 19  1  0  0  0  0
M  END
