  27

 N          1.1343900000        0.4598400000        0.1176900000
 C          2.5440800000        0.0100100000       -0.0404700000
 C          3.3679300000        1.1994100000       -0.5279700000
 C          3.0151400000       -0.6320800000        1.2439000000
 C          2.8204000000       -2.0088000000        1.4361100000
 C          3.1911300000       -2.6231400000        2.6355800000
 C          3.5855900000        0.1119100000        2.2916000000
 C          3.9684400000       -0.4953100000        3.5012800000
 C          3.7635800000       -1.8807500000        3.6766100000
 C          4.1404900000       -2.4846900000        4.8868600000
 C          4.7165600000       -1.7308000000        5.9101000000
 C          4.9233500000       -0.3665500000        5.7357900000
 C          4.5514400000        0.2487400000        4.5401800000
 H          0.7631200000        0.8812700000       -0.7411500000
 H          1.0546600000        1.1451900000        0.8791500000
 H          0.5334800000       -0.3347100000        0.3699500000
 H          2.5281400000       -0.7407000000       -0.8398700000
 H          3.3203200000        2.0499500000        0.1607200000
 H          3.0015700000        1.5500400000       -1.4993600000
 H          4.4203200000        0.9210100000       -0.6489800000
 H          2.3875700000       -2.6343800000        0.6562400000
 H          3.0349600000       -3.6947300000        2.7531400000
 H          3.7527000000        1.1826400000        2.1883700000
 H          3.9915700000       -3.5515300000        5.0452900000
 H          5.0079800000       -2.2104700000        6.8419000000
 H          5.3796200000        0.2189400000        6.5316000000
 H          4.7301200000        1.3162800000        4.4297500000
