48
 xtb: 6.5.1 (fef0646)
N           -8.42000383535627       -2.09942505429755       -0.15024587660629
C           -8.83461399755822       -0.85443573069684        0.55814712356979
C           -8.29480401621689        0.41564833236135       -0.10369857986354
C           -6.81812004218450        0.59025446048054        0.00512360272500
C           -6.17130644968108        1.78309544740039        0.08745364402558
C           -4.75626125999517        1.67507293872119        0.14581169379312
C           -4.29451658600420        0.38933674218648        0.10355017246596
C           -2.91427668772452       -0.01048294003629        0.13629528783230
C           -2.45172186717024       -1.29374892523792        0.07037791845668
C           -1.04149398104100       -1.41804381141813        0.11739050027884
C           -0.37941719954422       -2.74930988463109        0.05457110297772
C           -0.38697885888718       -0.20382997515440        0.22104274435377
C            1.03516093628661        0.00505443156629        0.28604739990107
C            1.69402331947398        1.21695440743174        0.38114743840595
C            1.06016632530097        2.46855665079640        0.43645560445516
N            0.53096721224822        3.50080435464567        0.48054937450876
C            3.12897251545829        1.09956819762530        0.41110745210198
C            3.95564087367488        2.23202335052284        0.49818368503455
N            4.64530424240208        3.16287511828713        0.56995902053653
C            3.58600635467739       -0.20200649145716        0.33949445752770
C            4.96107816036706       -0.63954449763904        0.33570259809031
C            5.41218316135919       -1.94077040688601        0.25913971029075
C            4.54810263887895       -3.14858840669254        0.16112944181092
C            6.83385923595782       -2.04396834930076        0.28051242404389
C            7.47057536681231       -0.85773920194017        0.36811844338846
S            6.34202542990225        0.43923931877597        0.41951616897378
S            2.21876581311657       -1.26740594311861        0.24896646667569
S           -1.57164597389364        1.08277159896757        0.26722037444935
S           -5.65257936957071       -0.69823701636277        0.00299423015328
Cl           2.28634266640018        0.55577973533897       -2.97481207504353
H           -7.39664102994217       -2.15655175329398       -0.20315730377231
H           -8.78538807142530       -2.09726013608851       -1.10925662162938
H           -8.76487549035575       -2.95216874683881        0.32328106181132
H           -8.44261330390632       -0.90549833334564        1.60821569456887
H           -9.90986808759872       -0.82893810803707        0.66034099427017
H           -8.78470008793059        1.29070117033856        0.34184769186907
H           -8.58235525350910        0.40707733204255       -1.15078087700954
H           -6.69351007602259        2.72961175946118        0.10780678466089
H           -4.10031219389239        2.52914300680477        0.21387877241438
H           -3.11369265336798       -2.14036902853514       -0.00547196082984
H            0.21255988184486       -2.92277688678147        0.96416760180330
H            0.27511506530251       -2.81923430792300       -0.79860582105548
H           -1.11658928687797       -3.55178305860825       -0.00504585924857
H            3.89657057395100       -3.23506278672568        1.02568144445807
H            5.14373837005366       -4.05877704591680        0.09328070500601
H            3.92014500055537       -3.10137271068613       -0.73591615608807
H            7.34636342314223       -2.99274771175868        0.22594552297870
H            8.53339297394365       -0.72376738584223        0.40483545017852
