 xtb: 6.5.1 (fef0646)
          01242317023D

 48 50  0     0  0            999 V2000
   -8.4240   -2.1049   -0.1456 N   0  0  0  0  0  0  0  0  0  0  0  0
   -8.8092   -0.8645    0.5871 C   0  0  0  0  0  0  0  0  0  0  0  0
   -8.2972    0.4093   -0.0896 C   0  0  0  0  0  0  0  0  0  0  0  0
   -6.8199    0.5920   -0.0004 C   0  0  0  0  0  0  0  0  0  0  0  0
   -6.1746    1.7850    0.0884 C   0  0  0  0  0  0  0  0  0  0  0  0
   -4.7591    1.6780    0.1432 C   0  0  0  0  0  0  0  0  0  0  0  0
   -4.2958    0.3932    0.0940 C   0  0  0  0  0  0  0  0  0  0  0  0
   -2.9157   -0.0070    0.1289 C   0  0  0  0  0  0  0  0  0  0  0  0
   -2.4544   -1.2912    0.0740 C   0  0  0  0  0  0  0  0  0  0  0  0
   -1.0444   -1.4167    0.1250 C   0  0  0  0  0  0  0  0  0  0  0  0
   -0.3838   -2.7491    0.0734 C   0  0  0  0  0  0  0  0  0  0  0  0
   -0.3888   -0.2025    0.2219 C   0  0  0  0  0  0  0  0  0  0  0  0
    1.0335    0.0054    0.2886 C   0  0  0  0  0  0  0  0  0  0  0  0
    1.6930    1.2167    0.3865 C   0  0  0  0  0  0  0  0  0  0  0  0
    1.0598    2.4686    0.4430 C   0  0  0  0  0  0  0  0  0  0  0  0
    0.5307    3.5009    0.4882 N   0  0  0  0  0  0  0  0  0  0  0  0
    3.1280    1.0985    0.4172 C   0  0  0  0  0  0  0  0  0  0  0  0
    3.9551    2.2307    0.5054 C   0  0  0  0  0  0  0  0  0  0  0  0
    4.6447    3.1614    0.5773 N   0  0  0  0  0  0  0  0  0  0  0  0
    3.5844   -0.2031    0.3440 C   0  0  0  0  0  0  0  0  0  0  0  0
    4.9593   -0.6413    0.3401 C   0  0  0  0  0  0  0  0  0  0  0  0
    5.4100   -1.9422    0.2569 C   0  0  0  0  0  0  0  0  0  0  0  0
    4.5457   -3.1492    0.1520 C   0  0  0  0  0  0  0  0  0  0  0  0
    6.8316   -2.0460    0.2798 C   0  0  0  0  0  0  0  0  0  0  0  0
    7.4686   -0.8607    0.3762 C   0  0  0  0  0  0  0  0  0  0  0  0
    6.3396    0.4346    0.4414 S   0  0  0  0  0  0  0  0  0  0  0  0
    2.2151   -1.2682    0.2524 S   0  0  0  0  0  0  0  0  0  0  0  0
   -1.5726    1.0873    0.2491 S   0  0  0  0  0  0  0  0  0  0  0  0
   -5.6530   -0.6937   -0.0175 S   0  0  0  0  0  0  0  0  0  0  0  0
    2.3053    0.5649   -3.0313 Cl  0  0  0  0  0  0  0  0  0  0  0  0
   -7.4017   -2.1362   -0.2502 H   0  0  0  0  0  0  0  0  0  0  0  0
   -8.8318   -2.1175   -1.0881 H   0  0  0  0  0  0  0  0  0  0  0  0
   -8.7231   -2.9556    0.3470 H   0  0  0  0  0  0  0  0  0  0  0  0
   -8.4216   -0.9092    1.6113 H   0  0  0  0  0  0  0  0  0  0  0  0
   -9.9013   -0.8331    0.6834 H   0  0  0  0  0  0  0  0  0  0  0  0
   -8.7851    1.2882    0.3473 H   0  0  0  0  0  0  0  0  0  0  0  0
   -8.5877    0.4034   -1.1453 H   0  0  0  0  0  0  0  0  0  0  0  0
   -6.6947    2.7300    0.1101 H   0  0  0  0  0  0  0  0  0  0  0  0
   -4.1014    2.5301    0.2142 H   0  0  0  0  0  0  0  0  0  0  0  0
   -3.1147   -2.1396   -0.0029 H   0  0  0  0  0  0  0  0  0  0  0  0
    0.2113   -2.9208    0.9700 H   0  0  0  0  0  0  0  0  0  0  0  0
    0.2737   -2.8216   -0.7931 H   0  0  0  0  0  0  0  0  0  0  0  0
   -1.1181   -3.5517    0.0024 H   0  0  0  0  0  0  0  0  0  0  0  0
    3.8956   -3.2364    1.0227 H   0  0  0  0  0  0  0  0  0  0  0  0
    5.1430   -4.0589    0.0897 H   0  0  0  0  0  0  0  0  0  0  0  0
    3.9198   -3.1003   -0.7387 H   0  0  0  0  0  0  0  0  0  0  0  0
    7.3456   -2.9933    0.2245 H   0  0  0  0  0  0  0  0  0  0  0  0
    8.5328   -0.7248    0.4084 H   0  0  0  0  0  0  0  0  0  0  0  0
  1  2  1  0  0  0  0
  2  3  1  0  0  0  0
  3  4  1  0  0  0  0
  4  5  2  0  0  0  0
  5  6  4  0  0  0  0
  6  7  4  0  0  0  0
  7  8  1  0  0  0  0
  8  9  4  0  0  0  0
  9 10  4  0  0  0  0
 10 11  1  0  0  0  0
 10 12  4  0  0  0  0
 12 13  1  0  0  0  0
 13 14  4  0  0  0  0
 14 15  1  0  0  0  0
 15 16  3  0  0  0  0
 14 17  1  0  0  0  0
 17 18  1  0  0  0  0
 18 19  3  0  0  0  0
 17 20  4  0  0  0  0
 20 21  1  0  0  0  0
 21 22  4  0  0  0  0
 22 23  1  0  0  0  0
 22 24  4  0  0  0  0
 24 25  2  0  0  0  0
 21 26  1  0  0  0  0
 25 26  1  0  0  0  0
 13 27  1  0  0  0  0
 20 27  1  0  0  0  0
  8 28  1  0  0  0  0
 12 28  1  0  0  0  0
  4 29  1  0  0  0  0
  7 29  1  0  0  0  0
  1 31  1  0  0  0  0
  1 32  1  0  0  0  0
  1 33  1  0  0  0  0
  2 34  1  0  0  0  0
  2 35  1  0  0  0  0
  3 36  1  0  0  0  0
  3 37  1  0  0  0  0
  5 38  1  0  0  0  0
  6 39  1  0  0  0  0
  9 40  1  0  0  0  0
 11 41  1  0  0  0  0
 11 42  1  0  0  0  0
 11 43  1  0  0  0  0
 23 44  1  0  0  0  0
 23 45  1  0  0  0  0
 23 46  1  0  0  0  0
 24 47  1  0  0  0  0
 25 48  1  0  0  0  0
M  END
