 xtb: 6.5.1 (fef0646)
          01242310033D

 23 22  0     0  0            999 V2000
   -2.3996    1.7266   -0.6585 N   0  0  0  0  0  0  0  0  0  0  0  0
   -1.4522    2.0909    0.4267 C   0  0  0  0  0  0  0  0  0  0  0  0
   -0.2178    1.2476    0.3897 C   0  0  0  0  0  0  0  0  0  0  0  0
    0.8962    1.6518   -0.3321 C   0  0  0  0  0  0  0  0  0  0  0  0
    2.0202    0.8531   -0.4022 C   0  0  0  0  0  0  0  0  0  0  0  0
    2.0610   -0.3827    0.2410 C   0  0  0  0  0  0  0  0  0  0  0  0
    3.2418   -1.2504    0.1882 C   0  0  0  0  0  0  0  0  0  0  0  0
    4.2135   -1.1553   -0.7099 C   0  0  0  0  0  0  0  0  0  0  0  0
    0.9357   -0.7849    0.9586 C   0  0  0  0  0  0  0  0  0  0  0  0
   -0.1861    0.0161    1.0273 C   0  0  0  0  0  0  0  0  0  0  0  0
   -3.0995   -1.6694   -0.3149 Cl  0  0  0  0  0  0  0  0  0  0  0  0
   -3.2677    2.2861   -0.6300 H   0  0  0  0  0  0  0  0  0  0  0  0
   -2.6608    0.7266   -0.5877 H   0  0  0  0  0  0  0  0  0  0  0  0
   -1.9644    1.8613   -1.5869 H   0  0  0  0  0  0  0  0  0  0  0  0
   -1.9402    1.9825    1.4024 H   0  0  0  0  0  0  0  0  0  0  0  0
   -1.1792    3.1497    0.3479 H   0  0  0  0  0  0  0  0  0  0  0  0
    0.8744    2.6008   -0.8426 H   0  0  0  0  0  0  0  0  0  0  0  0
    2.8813    1.1940   -0.9519 H   0  0  0  0  0  0  0  0  0  0  0  0
    3.2995   -2.0238    0.9381 H   0  0  0  0  0  0  0  0  0  0  0  0
    4.1888   -0.4198   -1.4903 H   0  0  0  0  0  0  0  0  0  0  0  0
    5.0565   -1.8209   -0.7025 H   0  0  0  0  0  0  0  0  0  0  0  0
    0.9474   -1.7396    1.4589 H   0  0  0  0  0  0  0  0  0  0  0  0
   -1.0540   -0.3140    1.5747 H   0  0  0  0  0  0  0  0  0  0  0  0
  1  2  1  0  0  0  0
  2  3  1  0  0  0  0
  3  4  4  0  0  0  0
  4  5  4  0  0  0  0
  5  6  4  0  0  0  0
  6  7  1  0  0  0  0
  7  8  2  0  0  0  0
  6  9  4  0  0  0  0
  3 10  4  0  0  0  0
  9 10  4  0  0  0  0
  1 12  1  0  0  0  0
  1 13  1  0  0  0  0
  1 14  1  0  0  0  0
  2 15  1  0  0  0  0
  2 16  1  0  0  0  0
  4 17  1  0  0  0  0
  5 18  1  0  0  0  0
  7 19  1  0  0  0  0
  8 20  1  0  0  0  0
  8 21  1  0  0  0  0
  9 22  1  0  0  0  0
 10 23  1  0  0  0  0
M  END
