 xtb: 6.5.1 (fef0646)
          01242310033D

 19 18  0     0  0            999 V2000
   -0.2070   -0.6728    1.0789 N   0  0  0  0  0  0  0  0  0  0  0  0
    0.9276   -0.3471    0.1689 C   0  0  0  0  0  0  0  0  0  0  0  0
    0.6206    0.9169   -0.6734 C   0  0  0  0  0  0  0  0  0  0  0  0
    1.5375    2.0356   -0.1451 C   0  0  0  0  0  0  0  0  0  0  0  0
    2.7404    1.3242    0.4979 C   0  0  0  0  0  0  0  0  0  0  0  0
    2.2215   -0.0485    0.9702 C   0  0  0  0  0  0  0  0  0  0  0  0
   -3.0575   -1.2219   -0.8376 Cl  0  0  0  0  0  0  0  0  0  0  0  0
   -1.0727   -0.8582    0.5450 H   0  0  0  0  0  0  0  0  0  0  0  0
   -0.3951    0.1206    1.7166 H   0  0  0  0  0  0  0  0  0  0  0  0
   -0.0017   -1.5019    1.6585 H   0  0  0  0  0  0  0  0  0  0  0  0
    1.0962   -1.2046   -0.5022 H   0  0  0  0  0  0  0  0  0  0  0  0
   -0.4387    1.1854   -0.5899 H   0  0  0  0  0  0  0  0  0  0  0  0
    0.8113    0.7309   -1.7376 H   0  0  0  0  0  0  0  0  0  0  0  0
    1.0102    2.6419    0.6018 H   0  0  0  0  0  0  0  0  0  0  0  0
    1.8454    2.7240   -0.9429 H   0  0  0  0  0  0  0  0  0  0  0  0
    3.1672    1.9065    1.3249 H   0  0  0  0  0  0  0  0  0  0  0  0
    3.5441    1.1974   -0.2383 H   0  0  0  0  0  0  0  0  0  0  0  0
    1.9847   -0.0238    2.0398 H   0  0  0  0  0  0  0  0  0  0  0  0
    2.9722   -0.8376    0.8399 H   0  0  0  0  0  0  0  0  0  0  0  0
  1  2  1  0  0  0  0
  2  3  1  0  0  0  0
  3  4  1  0  0  0  0
  4  5  1  0  0  0  0
  2  6  1  0  0  0  0
  5  6  1  0  0  0  0
  1  8  1  0  0  0  0
  1  9  1  0  0  0  0
  1 10  1  0  0  0  0
  2 11  1  0  0  0  0
  3 12  1  0  0  0  0
  3 13  1  0  0  0  0
  4 14  1  0  0  0  0
  4 15  1  0  0  0  0
  5 16  1  0  0  0  0
  5 17  1  0  0  0  0
  6 18  1  0  0  0  0
  6 19  1  0  0  0  0
M  END
