  27

 N         -3.5130441498        0.2584146901       -1.4401384421
 C         -3.4910981998        0.8614222394       -0.0773178564
 C         -2.7714041077       -0.0199137003        0.9422582990
 C         -1.3357957638       -0.2814038788        0.5903323001
 C         -0.4068149177        0.7516693396        0.6160554450
 C          0.9423112740        0.5346158422        0.2828191074
 C          1.8951486963        1.5689825749        0.3011801834
 C          3.2141080136        1.3182983149       -0.0279979078
 C          3.6199651550        0.0406955252       -0.3803256471
 C          2.7111213749       -1.0001216084       -0.4096137529
 C          1.3605464002       -0.7810343751       -0.0838359744
 C          0.4059570650       -1.8115557062       -0.1033560506
 C         -0.9129618330       -1.5590798684        0.2252141710
 H         -3.9913471068        0.8676887420       -2.1216695119
 H         -4.0042040285       -0.6478412398       -1.4364643737
 H         -2.5565519936        0.0919549421       -1.7874941447
 H         -4.5213058555        1.0571775814        0.2467878999
 H         -3.0048331396        1.8427106119       -0.1274236965
 H         -3.2999455444       -0.9748984663        1.0327204968
 H         -2.8148928536        0.4329520384        1.9396530135
 H         -0.7221205401        1.7390769789        0.9047670645
 H          1.5869207720        2.5638014749        0.5768098169
 H          3.9334657926        2.1223348451       -0.0092542059
 H          4.6532265119       -0.1425568305       -0.6322439748
 H          3.0332540328       -1.9916738590       -0.6816676681
 H          0.7144592646       -2.8078502261       -0.3738955191
 H         -1.6286922337       -2.3643534311        0.2091622621
          27
        -35.31574837
 N         -3.3271180066       -1.1894858122        1.1465184546
 C         -3.6853338277       -0.0190779414        0.2957805179
 C         -2.7825213692        0.1138566277       -0.9292788541
 C         -1.3422111163        0.3440614265       -0.5765220898
 C         -0.4207574833       -0.6950923710       -0.6350899891
 C          0.9294532296       -0.4979779612       -0.2937107441
 C          1.8778998705       -1.5346658127       -0.3568936900
 C          3.1977598472       -1.3039648180       -0.0167674466
 C          3.6086067749       -0.0451442287        0.3927268586
 C          2.7045181638        0.9976083295        0.4660327966
 C          1.3538980208        0.7994359580        0.1272882899
 C          0.4053519651        1.8341380771        0.1849393776
 C         -0.9132292403        1.6030774858       -0.1600939056
 H         -2.3548597174       -1.1197783499        1.4815396639
 H         -3.4133508756       -2.0712339665        0.6193831421
 H         -3.9379014561       -1.2622042580        1.9753128260
 H         -3.6260615001        0.8948953577        0.8986334688
 H         -4.7353404356       -0.1066017275       -0.0115289315
 H         -3.1261954458        0.9330554968       -1.5718795701
 H         -2.8636483311       -0.7900345564       -1.5421571715
 H         -0.7416308849       -1.6704610896       -0.9566892442
 H          1.5660766170       -2.5145058828       -0.6783155210
 H          3.9139327175       -2.1091445482       -0.0722852014
 H          4.6421431702        0.1223962471        0.6543171317
 H          3.0303196344        1.9747016209        0.7824763220
 H          0.7180579477        2.8166693357        0.4977343280
 H         -1.6259039953        2.4100892257       -0.1153903528
