  27

 N         -3.6120884524       -0.1520256165       -1.3581041000
 C         -3.4748750140        0.8627675111       -0.2734303056
 C         -2.7386118861        0.3204014394        0.9499846249
 C         -1.3201814765       -0.0669279275        0.6541396469
 C         -0.3489190638        0.9088287873        0.4926608161
 C          0.9832512897        0.5747615967        0.1906189441
 C          1.9829426035        1.5508056317        0.0269626219
 C          3.2792772194        1.1857786420       -0.2713000827
 C          3.6188906775       -0.1519167369       -0.4151821891
 C          2.6656025067       -1.1367123025       -0.2609723069
 C          1.3337558171       -0.8021983548        0.0442181401
 C          0.3330861209       -1.7749295768        0.2111985553
 C         -0.9630833261       -1.4077987540        0.5082778719
 H         -4.0992648387        0.2327196057       -2.1759238901
 H         -4.1416983129       -0.9672830555       -1.0282848817
 H         -2.6891408338       -0.4801186921       -1.6664452644
 H         -4.4716276649        1.2216881379        0.0102961898
 H         -2.9428575095        1.7371417174       -0.6649127230
 H         -3.2754588933       -0.5466844532        1.3464772394
 H         -2.7421672917        1.0602640990        1.7581131837
 H         -0.6183788770        1.9436857532        0.6029125292
 H          1.7256461555        2.5899293924        0.1381821871
 H          4.0340715434        1.9452769533       -0.3932277423
 H          4.6353722971       -0.4235257134       -0.6491605770
 H          2.9349828227       -2.1726345488       -0.3734389733
 H          0.5884165173       -2.8148438942        0.1037817369
 H         -1.7161384510       -2.1662153357        0.6348994615
          27
        -35.42488137
 N         -3.2973377864        1.2128095303        1.1417510350
 C         -3.6675282715        0.0272326417        0.3152030500
 C         -2.7854270135       -0.1258760522       -0.9219198632
 C         -1.3426960701       -0.3550644961       -0.5829603244
 C         -0.4259443065        0.6829872899       -0.6511468755
 C          0.9236365448        0.4920420965       -0.3052684263
 C          1.8679979049        1.5327265031       -0.3675321118
 C          3.1837503575        1.3090648565       -0.0189079318
 C          3.5979816684        0.0524795398        0.3991874318
 C          2.7001616998       -0.9920115941        0.4725271089
 C          1.3502519207       -0.8013977894        0.1260238000
 C          0.4034229826       -1.8380669994        0.1897640016
 C         -0.9124685198       -1.6114445055       -0.1566443111
 H         -2.3222526625        1.1441051220        1.4556751085
 H         -3.8927638823        1.2939756081        1.9741846410
 H         -3.3924275106        2.0783948774        0.5981785636
 H         -4.7217695931        0.1071076257        0.0242921699
 H         -3.5945783870       -0.8758012379        0.9315680604
 H         -2.8717583729        0.7682304427       -1.5468401713
 H         -3.1390995607       -0.9540875598       -1.5457370249
 H         -0.7490439893        1.6546952369       -0.9780553342
 H          1.5524985477        2.5094834939       -0.6913424397
 H          3.8959019625        2.1162662264       -0.0715316340
 H          4.6292703437       -0.1080179502        0.6684609482
 H          3.0273716550       -1.9649688851        0.7961682034
 H          0.7163491774       -2.8152526163        0.5144711228
 H         -1.6257125331       -2.4157997189       -0.1010691382
