  27

 N          2.6942350103       -1.5254450348       -2.1215140349
 C          2.4233136180       -0.5885180185       -1.0039132712
 C          3.0196284966       -1.1301496107        0.2944483158
 C          4.5251701170       -1.1830661117        0.2364565194
 C          5.2687158622       -0.0345222072        0.3372855534
 C          6.6759186470       -0.0640001589        0.2749055959
 C          7.4546669809        1.1075940464        0.3855425874
 C          8.8185606817        1.0448649394        0.3321600638
 C          9.4675011523       -0.1896240011        0.1629955177
 C          8.7414112326       -1.3419535900        0.0505609388
 C          7.3322978492       -1.3114510912        0.1035798014
 C          6.5495661233       -2.4800328998        0.0019494056
 C          5.1855043721       -2.4160410445        0.0618335210
 H          2.3405501160       -1.1526313959       -3.0100430693
 H          2.2453599352       -2.4312600621       -1.9415028260
 H          3.7068829875       -1.6783112504       -2.2033678506
 H          1.3469279216       -0.4649210771       -0.8919067623
 H          2.8686361689        0.3787169823       -1.2349340381
 H          2.6237172909       -2.1234920064        0.5047218550
 H          2.7172245641       -0.4739150810        1.1100434411
 H          4.7855290847        0.9205313820        0.4846685723
 H          6.9562149569        2.0570988354        0.5173214679
 H          9.4113685992        1.9437030646        0.4199970343
 H         10.5468237169       -0.2180979806        0.1246622957
 H          9.2387635468       -2.2930462135       -0.0773108405
 H          7.0520893854       -3.4285638933       -0.1197912870
 H          4.6079715826       -3.3265765214        0.0026814933
