37
0.0
N            4.62886   1.75272   0.13871
C            4.41137   1.13121   1.46952
C            3.27762   0.11710   1.40713
O            2.05688   0.73070   1.01142
C            0.98713  -0.13638   0.85597
C           -0.25730   0.42448   0.46189
C           -0.40007   1.82163   0.24923
C           -1.58256   2.36310  -0.13018
C           -1.38096  -0.41317   0.27602
C           -1.27520  -1.80856   0.48507
C           -0.03840  -2.33422   0.88026
C            1.05316  -1.52472   1.05965
C           -2.42574  -2.62667   0.28849
C           -3.61054  -2.09299  -0.09274
C           -3.75275  -0.68859  -0.31176
C           -4.96216  -0.11085  -0.70452
C           -5.06174   1.25099  -0.90576
C           -3.96909   2.07346  -0.72320
C           -2.73592   1.54646  -0.33096
C           -2.62623   0.14971  -0.12328
Cl           5.25681  -0.88481  -2.08266
H            5.37870   2.45839   0.14879
H            3.76139   2.20175  -0.18172
H            4.87038   1.02861  -0.55951
H            4.16451   1.90755   2.20245
H            5.33636   0.65916   1.82161
H            3.12085  -0.36383   2.37973
H            3.51744  -0.66216   0.67560
H            0.46195   2.44745   0.40289
H           -1.66853   3.42493  -0.28547
H            0.04486  -3.39535   1.04316
H            1.98228  -1.96940   1.36632
H           -2.33648  -3.68750   0.44971
H           -4.46929  -2.72616  -0.23675
H           -5.82124  -0.74353  -0.84941
H           -6.00445   1.67703  -1.20881
H           -4.05757   3.13469  -0.88226
