37
 xtb: 6.5.1 (fef0646)
N            4.58651257713189        1.87937851790828        0.23955957381791
C            4.39804921754098        1.14614966074032        1.52096727625963
C            3.28110665067163        0.11711530172535        1.39865126658585
O            2.05682265943721        0.73509703154125        1.02023898466538
C            0.98716685998428       -0.13481131675729        0.85714566257648
C           -0.25695282036441        0.42595143482501        0.46317878300629
C           -0.40006794894409        1.82276833811854        0.24814827018569
C           -1.58213787447235        2.36348980446539       -0.13344890086521
C           -1.38049712466182       -0.41210818701166        0.27732542644018
C           -1.27440325582334       -1.80727694802585        0.48740759955747
C           -0.03650404568789       -2.33286629674673        0.87937864800354
C            1.05591264269054       -1.52355314431980        1.05512159059846
C           -2.42532945437944       -2.62552164207036        0.29301212744270
C           -3.61022414533369       -2.09230698532544       -0.08859363383208
C           -3.75235078769446       -0.68829312409403       -0.31003309226168
C           -4.96178099605909       -0.11097068976744       -0.70341685664488
C           -5.06095676499133        1.25037364422416       -0.90819854350197
C           -3.96805335193102        2.07294419022623       -0.72759827934506
C           -2.73539730098569        1.54654428652711       -0.33311411050342
C           -2.62575105608070        0.15018359375506       -0.12284107107385
Cl           5.28920271408690       -1.00209046473941       -2.19370190021393
H            5.35656204811518        2.50405421862570        0.19001614274847
H            3.74239997230788        2.22737520376123       -0.14686893200794
H            4.87065927010554        1.08362048582847       -0.54125352533214
H            4.15798296289655        1.89650719260636        2.23275074993340
H            5.33630435122337        0.66233033877639        1.82457033220215
H            3.12165076467223       -0.37605228688841        2.37116909122611
H            3.52257158661612       -0.65264732828434        0.66420366432126
H            0.46188598453290        2.44803825394097        0.40210613017318
H           -1.66817806425701        3.42489265204479       -0.28761959590308
H            0.04565663279577       -3.39498758934092        1.04244816067609
H            1.98372114075362       -1.96924945098773        1.36269104016684
H           -2.33648128323565       -3.68703458062708        0.45182152678680
H           -4.46932903193286       -2.72593269248381       -0.23481389190212
H           -5.82123957507267       -0.74352941678275       -0.84847069069930
H           -6.00411064675490        1.67672689017867       -1.21001951825991
H           -4.05701093991722        3.13438974335855       -0.88475425588257
