 xtb: 6.5.1 (fef0646)
          01242317133D

 37 39  0     0  0            999 V2000
    4.6289    1.7527    0.1387 N   0  0  0  0  0  0  0  0  0  0  0  0
    4.4114    1.1312    1.4695 C   0  0  0  0  0  0  0  0  0  0  0  0
    3.2776    0.1171    1.4071 C   0  0  0  0  0  0  0  0  0  0  0  0
    2.0569    0.7307    1.0114 O   0  0  0  0  0  0  0  0  0  0  0  0
    0.9871   -0.1364    0.8560 C   0  0  0  0  0  0  0  0  0  0  0  0
   -0.2573    0.4245    0.4619 C   0  0  0  0  0  0  0  0  0  0  0  0
   -0.4001    1.8216    0.2492 C   0  0  0  0  0  0  0  0  0  0  0  0
   -1.5825    2.3631   -0.1302 C   0  0  0  0  0  0  0  0  0  0  0  0
   -1.3810   -0.4132    0.2760 C   0  0  0  0  0  0  0  0  0  0  0  0
   -1.2752   -1.8086    0.4851 C   0  0  0  0  0  0  0  0  0  0  0  0
   -0.0384   -2.3342    0.8803 C   0  0  0  0  0  0  0  0  0  0  0  0
    1.0532   -1.5247    1.0596 C   0  0  0  0  0  0  0  0  0  0  0  0
   -2.4258   -2.6267    0.2885 C   0  0  0  0  0  0  0  0  0  0  0  0
   -3.6106   -2.0930   -0.0927 C   0  0  0  0  0  0  0  0  0  0  0  0
   -3.7528   -0.6886   -0.3117 C   0  0  0  0  0  0  0  0  0  0  0  0
   -4.9622   -0.1108   -0.7045 C   0  0  0  0  0  0  0  0  0  0  0  0
   -5.0617    1.2510   -0.9057 C   0  0  0  0  0  0  0  0  0  0  0  0
   -3.9691    2.0735   -0.7232 C   0  0  0  0  0  0  0  0  0  0  0  0
   -2.7359    1.5465   -0.3310 C   0  0  0  0  0  0  0  0  0  0  0  0
   -2.6262    0.1497   -0.1233 C   0  0  0  0  0  0  0  0  0  0  0  0
    5.2568   -0.8848   -2.0827 Cl  0  0  0  0  0  0  0  0  0  0  0  0
    5.3787    2.4584    0.1488 H   0  0  0  0  0  0  0  0  0  0  0  0
    3.7614    2.2017   -0.1817 H   0  0  0  0  0  0  0  0  0  0  0  0
    4.8704    1.0286   -0.5595 H   0  0  0  0  0  0  0  0  0  0  0  0
    4.1645    1.9075    2.2024 H   0  0  0  0  0  0  0  0  0  0  0  0
    5.3364    0.6591    1.8216 H   0  0  0  0  0  0  0  0  0  0  0  0
    3.1209   -0.3638    2.3797 H   0  0  0  0  0  0  0  0  0  0  0  0
    3.5174   -0.6622    0.6756 H   0  0  0  0  0  0  0  0  0  0  0  0
    0.4620    2.4474    0.4029 H   0  0  0  0  0  0  0  0  0  0  0  0
   -1.6685    3.4249   -0.2855 H   0  0  0  0  0  0  0  0  0  0  0  0
    0.0448   -3.3953    1.0432 H   0  0  0  0  0  0  0  0  0  0  0  0
    1.9823   -1.9694    1.3663 H   0  0  0  0  0  0  0  0  0  0  0  0
   -2.3365   -3.6875    0.4497 H   0  0  0  0  0  0  0  0  0  0  0  0
   -4.4693   -2.7261   -0.2367 H   0  0  0  0  0  0  0  0  0  0  0  0
   -5.8212   -0.7435   -0.8494 H   0  0  0  0  0  0  0  0  0  0  0  0
   -6.0044    1.6771   -1.2088 H   0  0  0  0  0  0  0  0  0  0  0  0
   -4.0576    3.1347   -0.8823 H   0  0  0  0  0  0  0  0  0  0  0  0
  1  2  1  0  0  0  0
  2  3  1  0  0  0  0
  3  4  1  0  0  0  0
  4  5  1  0  0  0  0
  5  6  4  0  0  0  0
  6  7  4  0  0  0  0
  7  8  2  0  0  0  0
  6  9  4  0  0  0  0
  9 10  4  0  0  0  0
 10 11  4  0  0  0  0
  5 12  4  0  0  0  0
 11 12  4  0  0  0  0
 10 13  4  0  0  0  0
 13 14  2  0  0  0  0
 14 15  1  0  0  0  0
 15 16  4  0  0  0  0
 16 17  4  0  0  0  0
 17 18  4  0  0  0  0
  8 19  4  0  0  0  0
 18 19  4  0  0  0  0
  9 20  4  0  0  0  0
 15 20  4  0  0  0  0
 19 20  4  0  0  0  0
  1 22  1  0  0  0  0
  1 23  1  0  0  0  0
  1 24  1  0  0  0  0
  2 25  1  0  0  0  0
  2 26  1  0  0  0  0
  3 27  1  0  0  0  0
  3 28  1  0  0  0  0
  7 29  1  0  0  0  0
  8 30  1  0  0  0  0
 11 31  1  0  0  0  0
 12 32  1  0  0  0  0
 13 33  1  0  0  0  0
 14 34  1  0  0  0  0
 16 35  1  0  0  0  0
 17 36  1  0  0  0  0
 18 37  1  0  0  0  0
M  END
