15
0.0
N           -2.20677   0.44743   0.43510
C           -1.41964  -0.76731   0.07106
C           -0.27265  -0.46135  -0.88082
S            0.96228   0.61333  -0.16240
C            2.03126  -0.57262   0.60940
H           -2.97362   0.22493   1.08700
H           -2.62712   0.88076  -0.39927
H           -1.61128   1.15745   0.88537
H           -2.09799  -1.50798  -0.37556
H           -1.03162  -1.23199   0.98622
H           -0.65646   0.04232  -1.77190
H            0.21579  -1.37459  -1.23086
H            1.49125  -1.16758   1.34263
H            2.84012  -0.05085   1.11881
H            2.46997  -1.23405  -0.13549
